<?xml version="1.0" encoding="UTF-8"?>

<!-- generated on 2022-04-08 15:44:56 by Eclipse SUMO netedit Version 1.12.0
<configuration xmlns:xsi="http://www.w3.org/2001/XMLSchema-instance" xsi:noNamespaceSchemaLocation="http://sumo.dlr.de/xsd/netconvertConfiguration.xsd">

    <input>
        <sumo-net-file value="C:\Users\seegras\Git\sumo-gym\data\scenarios\Nuremberg-NOP\map.net.xml"/>
    </input>

    <output>
        <output-file value="C:\Users\seegras\Git\sumo-gym\data\scenarios\Nuremberg-NOP\map.net.xml"/>
        <output.street-names value="true"/>
    </output>

    <processing>
        <geometry.min-radius.fix.railways value="false"/>
        <geometry.max-grade.fix value="false"/>
        <offset.disable-normalization value="true"/>
        <lefthand value="false"/>
    </processing>

    <junctions>
        <no-turnarounds value="true"/>
        <junctions.corner-detail value="5"/>
        <junctions.limit-turn-speed value="5.5"/>
        <rectangular-lane-cut value="false"/>
    </junctions>

    <pedestrian>
        <walkingareas value="false"/>
    </pedestrian>

    <netedit>
        <additional-files value="C:\Users\seegras\Git\sumo-gym\data\scenarios\Nuremberg-NOP\map.net.xml"/>
        <route-files value="C:\Users\seegras\Git\sumo-gym\data\scenarios\Nuremberg-NOP\fraunhofer-cruise.rou.xml"/>
    </netedit>

    <report>
        <aggregate-warnings value="5"/>
    </report>

</configuration>
-->

<net version="1.9" junctionCornerDetail="5" limitTurnSpeed="5.50" xmlns:xsi="http://www.w3.org/2001/XMLSchema-instance" xsi:noNamespaceSchemaLocation="http://sumo.dlr.de/xsd/net_file.xsd">

    <location netOffset="-652955.29,-5483034.64" convBoundary="0.00,0.00,1939.45,1532.62" origBoundary="11.111845,49.480305,11.138726,49.493962" projParameter="+proj=utm +zone=32 +ellps=WGS84 +datum=WGS84 +units=m +no_defs"/>

    <type id="highway.bridleway" priority="1" numLanes="1" speed="2.78" allow="pedestrian" oneway="1" width="2.00"/>
    <type id="highway.bus_guideway" priority="1" numLanes="1" speed="27.78" allow="bus" oneway="1"/>
    <type id="highway.cycleway" priority="1" numLanes="1" speed="8.33" allow="bicycle" oneway="0" width="1.00"/>
    <type id="highway.footway" priority="1" numLanes="1" speed="2.78" allow="pedestrian" oneway="1" width="2.00"/>
    <type id="highway.ford" priority="1" numLanes="1" speed="2.78" allow="army" oneway="0"/>
    <type id="highway.living_street" priority="2" numLanes="1" speed="2.78" disallow="tram rail_urban rail rail_electric rail_fast ship" oneway="0"/>
    <type id="highway.motorway" priority="14" numLanes="2" speed="39.44" allow="private emergency authority army vip passenger hov taxi bus coach delivery truck trailer motorcycle evehicle custom1 custom2" oneway="1"/>
    <type id="highway.motorway_link" priority="9" numLanes="1" speed="22.22" allow="private emergency authority army vip passenger hov taxi bus coach delivery truck trailer motorcycle evehicle custom1 custom2" oneway="1"/>
    <type id="highway.path" priority="1" numLanes="1" speed="2.78" allow="pedestrian bicycle" oneway="0" width="2.00"/>
    <type id="highway.pedestrian" priority="1" numLanes="1" speed="2.78" allow="pedestrian" oneway="1" width="2.00"/>
    <type id="highway.primary" priority="12" numLanes="2" speed="27.78" disallow="tram rail_urban rail rail_electric rail_fast ship" oneway="0"/>
    <type id="highway.primary_link" priority="7" numLanes="1" speed="22.22" disallow="tram rail_urban rail rail_electric rail_fast ship" oneway="0"/>
    <type id="highway.raceway" priority="15" numLanes="2" speed="83.33" allow="vip" oneway="0"/>
    <type id="highway.residential" priority="3" numLanes="1" speed="13.89" disallow="tram rail_urban rail rail_electric rail_fast ship" oneway="0"/>
    <type id="highway.secondary" priority="11" numLanes="1" speed="27.78" disallow="tram rail_urban rail rail_electric rail_fast ship" oneway="0"/>
    <type id="highway.secondary_link" priority="6" numLanes="1" speed="22.22" disallow="tram rail_urban rail rail_electric rail_fast ship" oneway="0"/>
    <type id="highway.service" priority="1" numLanes="1" speed="5.56" allow="pedestrian delivery bicycle" oneway="0"/>
    <type id="highway.stairs" priority="1" numLanes="1" speed="1.39" allow="pedestrian" oneway="1" width="2.00"/>
    <type id="highway.step" priority="1" numLanes="1" speed="1.39" allow="pedestrian" oneway="1" width="2.00"/>
    <type id="highway.steps" priority="1" numLanes="1" speed="1.39" allow="pedestrian" oneway="1" width="2.00"/>
    <type id="highway.tertiary" priority="10" numLanes="1" speed="22.22" disallow="tram rail_urban rail rail_electric rail_fast ship" oneway="0"/>
    <type id="highway.tertiary_link" priority="5" numLanes="1" speed="22.22" disallow="tram rail_urban rail rail_electric rail_fast ship" oneway="0"/>
    <type id="highway.track" priority="1" numLanes="1" speed="5.56" allow="pedestrian motorcycle moped bicycle" oneway="0"/>
    <type id="highway.trunk" priority="13" numLanes="2" speed="27.78" disallow="pedestrian bicycle tram rail_urban rail rail_electric rail_fast ship" oneway="0"/>
    <type id="highway.trunk_link" priority="8" numLanes="1" speed="22.22" disallow="pedestrian bicycle tram rail_urban rail rail_electric rail_fast ship" oneway="0"/>
    <type id="highway.unclassified" priority="4" numLanes="1" speed="13.89" disallow="tram rail_urban rail rail_electric rail_fast ship" oneway="0"/>
    <type id="highway.unsurfaced" priority="1" numLanes="1" speed="8.33" disallow="tram rail_urban rail rail_electric rail_fast ship" oneway="0"/>
    <type id="railway.highspeed" priority="21" numLanes="1" speed="69.44" allow="rail_fast" oneway="1"/>
    <type id="railway.light_rail" priority="19" numLanes="1" speed="27.78" allow="rail_urban" oneway="1"/>
    <type id="railway.preserved" priority="16" numLanes="1" speed="27.78" allow="rail" oneway="1"/>
    <type id="railway.rail" priority="20" numLanes="1" speed="44.44" allow="rail" oneway="1"/>
    <type id="railway.subway" priority="18" numLanes="1" speed="27.78" allow="rail_urban" oneway="1"/>
    <type id="railway.tram" priority="17" numLanes="1" speed="13.89" allow="tram" oneway="1"/>

    <edge id=":1029583163_0" function="internal">
        <lane id=":1029583163_0_0" index="0" allow="pedestrian delivery bicycle" speed="5.07" length="4.97" shape="960.33,550.47 959.46,549.43 958.46,548.91 957.33,548.91 956.07,549.43"/>
    </edge>
    <edge id=":1029583163_1" function="internal">
        <lane id=":1029583163_1_0" index="0" allow="pedestrian delivery bicycle" speed="5.56" length="9.27" shape="960.33,550.47 955.74,542.41"/>
    </edge>
    <edge id=":1029583163_2" function="internal">
        <lane id=":1029583163_2_0" index="0" allow="pedestrian delivery bicycle" speed="3.65" length="4.67" shape="960.33,550.47 960.37,549.03 960.84,548.26 961.73,548.18 963.04,548.77"/>
    </edge>
    <edge id=":1029583163_3" function="internal">
        <lane id=":1029583163_3_0" index="0" allow="pedestrian delivery bicycle" speed="5.56" length="9.01" shape="958.59,540.95 963.04,548.77"/>
    </edge>
    <edge id=":1029583163_4" function="internal">
        <lane id=":1029583163_4_0" index="0" allow="pedestrian delivery bicycle" speed="5.56" length="9.96" shape="958.59,540.95 959.47,543.49 959.34,545.75 958.21,547.73 956.07,549.43"/>
    </edge>
    <edge id=":1029583163_5" function="internal">
        <lane id=":1029583163_5_0" index="0" allow="pedestrian delivery bicycle" speed="3.65" length="4.67" shape="958.59,540.95 958.43,542.38 957.90,543.10 957.01,543.11 955.74,542.41"/>
    </edge>
    <edge id=":1029583163_6" function="internal">
        <lane id=":1029583163_6_0" index="0" allow="pedestrian delivery bicycle" speed="5.14" length="5.01" shape="954.45,546.67 955.53,545.81 956.11,544.82 956.18,543.68 955.74,542.41"/>
    </edge>
    <edge id=":1029583163_7" function="internal">
        <lane id=":1029583163_7_0" index="0" allow="pedestrian delivery bicycle" speed="5.56" length="10.04" shape="954.45,546.67 956.98,545.62 959.26,545.63 961.28,546.68 963.04,548.77"/>
    </edge>
    <edge id=":1029583163_8" function="internal">
        <lane id=":1029583163_8_0" index="0" allow="pedestrian delivery bicycle" speed="3.65" length="4.67" shape="954.45,546.67 955.89,546.75 956.64,547.24 956.70,548.13 956.07,549.43"/>
    </edge>
    <edge id=":1107668343_0" function="internal">
        <lane id=":1107668343_0_0" index="0" allow="pedestrian bicycle" speed="4.17" length="6.14" shape="983.39,580.16 981.09,579.66 979.37,579.16 978.22,578.67 977.64,578.20"/>
    </edge>
    <edge id=":1107668343_1" function="internal">
        <lane id=":1107668343_1_0" index="0" allow="pedestrian bicycle" speed="4.17" length="3.91" width="2.00" shape="980.35,576.50 980.84,577.05 981.57,577.51 982.55,577.90 983.78,578.20"/>
    </edge>
    <edge id=":1107668343_2" function="internal">
        <lane id=":1107668343_2_0" index="0" allow="pedestrian delivery bicycle" speed="3.65" length="4.67" shape="980.35,576.50 980.31,577.95 979.84,578.71 978.95,578.79 977.64,578.20"/>
    </edge>
    <edge id=":1109049786_0" function="internal">
        <lane id=":1109049786_0_0" index="0" disallow="tram rail_urban rail rail_electric rail_fast ship" speed="8.33" length="8.93" shape="1202.02,345.44 1200.16,343.58 1198.70,342.52 1197.07,341.65 1194.73,340.41"/>
    </edge>
    <edge id=":1109049786_1" function="internal">
        <lane id=":1109049786_1_0" index="0" allow="pedestrian delivery bicycle" speed="6.95" length="2.50" shape="1202.02,345.44 1201.00,343.84 1200.82,343.26"/>
    </edge>
    <edge id=":1109049786_7" function="internal">
        <lane id=":1109049786_7_0" index="0" allow="pedestrian delivery bicycle" speed="6.95" length="7.79" shape="1200.82,343.26 1200.33,341.66 1200.02,338.90 1200.08,335.57"/>
    </edge>
    <edge id=":1109049786_2" function="internal">
        <lane id=":1109049786_2_0" index="0" allow="pedestrian delivery bicycle" speed="6.95" length="7.71" shape="1203.27,335.77 1203.20,338.45 1203.36,340.59 1203.75,342.19 1204.37,343.26"/>
    </edge>
    <edge id=":1109049786_3" function="internal">
        <lane id=":1109049786_3_0" index="0" allow="pedestrian delivery bicycle" speed="6.67" length="12.79" shape="1203.27,335.77 1202.52,339.48 1200.84,341.49 1198.24,341.80 1194.73,340.41"/>
    </edge>
    <edge id=":1109049786_4" function="internal">
        <lane id=":1109049786_4_0" index="0" allow="pedestrian delivery bicycle" speed="3.65" length="4.67" shape="1203.27,335.77 1202.40,336.92 1201.57,337.27 1200.80,336.82 1200.08,335.57"/>
    </edge>
    <edge id=":1109049786_5" function="internal">
        <lane id=":1109049786_5_0" index="0" allow="pedestrian delivery bicycle" speed="4.71" length="5.67" shape="1196.29,337.62 1197.85,338.23 1199.00,338.10 1199.74,337.21 1200.08,335.57"/>
    </edge>
    <edge id=":1109049786_6" function="internal">
        <lane id=":1109049786_6_0" index="0" disallow="tram rail_urban rail rail_electric rail_fast ship" speed="8.33" length="9.94" shape="1196.29,337.62 1198.90,339.01 1200.69,339.99 1202.31,341.19 1204.37,343.26"/>
    </edge>
    <edge id=":1111591200_0" function="internal">
        <lane id=":1111591200_0_0" index="0" allow="pedestrian delivery bicycle" speed="3.65" length="4.67" shape="993.59,414.32 993.65,412.88 994.13,412.12 995.02,412.05 996.33,412.66"/>
    </edge>
    <edge id=":1111591202_0" function="internal">
        <lane id=":1111591202_0_0" index="0" allow="pedestrian delivery bicycle" speed="3.65" length="4.67" shape="911.48,539.43 911.56,537.99 912.05,537.24 912.94,537.18 914.24,537.81"/>
    </edge>
    <edge id=":1111591205_0" function="internal">
        <lane id=":1111591205_0_0" index="0" disallow="tram rail_urban rail rail_electric rail_fast ship" speed="8.33" length="9.49" shape="1023.45,451.00 1015.38,456.00"/>
    </edge>
    <edge id=":1111591205_1" function="internal">
        <lane id=":1111591205_1_0" index="0" allow="pedestrian delivery bicycle" speed="6.85" length="3.33" shape="1023.45,451.00 1020.89,452.15 1020.36,452.16"/>
    </edge>
    <edge id=":1111591205_7" function="internal">
        <lane id=":1111591205_7_0" index="0" allow="pedestrian delivery bicycle" speed="6.85" length="6.90" shape="1020.36,452.16 1018.58,452.20 1016.53,451.14 1014.74,448.97"/>
    </edge>
    <edge id=":1111591205_2" function="internal">
        <lane id=":1111591205_2_0" index="0" allow="pedestrian delivery bicycle" speed="5.02" length="5.02" shape="1017.47,447.30 1018.35,448.36 1019.35,448.88 1020.48,448.86 1021.74,448.30"/>
    </edge>
    <edge id=":1111591205_3" function="internal">
        <lane id=":1111591205_3_0" index="0" allow="pedestrian delivery bicycle" speed="6.87" length="10.21" shape="1017.47,447.30 1018.58,449.88 1018.60,452.19 1017.54,454.23 1015.38,456.00"/>
    </edge>
    <edge id=":1111591205_4" function="internal">
        <lane id=":1111591205_4_0" index="0" allow="pedestrian delivery bicycle" speed="3.65" length="4.67" shape="1017.47,447.30 1017.41,448.74 1016.94,449.50 1016.05,449.58 1014.74,448.97"/>
    </edge>
    <edge id=":1111591205_5" function="internal">
        <lane id=":1111591205_5_0" index="0" allow="pedestrian delivery bicycle" speed="5.05" length="5.04" shape="1013.72,453.26 1014.78,452.39 1015.30,451.38 1015.29,450.24 1014.74,448.97"/>
    </edge>
    <edge id=":1111591205_6" function="internal">
        <lane id=":1111591205_6_0" index="0" disallow="tram rail_urban rail rail_electric rail_fast ship" speed="8.33" length="9.43" shape="1013.72,453.26 1021.74,448.30"/>
    </edge>
    <edge id=":1111591212_0" function="internal">
        <lane id=":1111591212_0_0" index="0" disallow="tram rail_urban rail rail_electric rail_fast ship" speed="8.33" length="5.03" shape="1218.42,433.80 1218.28,428.78"/>
    </edge>
    <edge id=":1111591212_1" function="internal">
        <lane id=":1111591212_1_0" index="0" disallow="tram rail_urban rail rail_electric rail_fast ship" speed="8.33" length="5.01" shape="1221.48,428.70 1221.61,433.71"/>
    </edge>
    <edge id=":1111591218_0" function="internal">
        <lane id=":1111591218_0_0" index="0" allow="pedestrian delivery bicycle" speed="3.65" length="4.67" shape="894.83,547.52 894.91,546.08 895.40,545.33 896.30,545.27 897.59,545.90"/>
    </edge>
    <edge id=":1111591220_0" function="internal">
        <lane id=":1111591220_0_0" index="0" allow="pedestrian delivery bicycle" speed="4.75" length="5.51" shape="1219.51,517.86 1218.46,516.66 1217.39,516.23 1216.30,516.60 1215.18,517.75"/>
    </edge>
    <edge id=":1111591220_1" function="internal">
        <lane id=":1111591220_1_0" index="0" allow="pedestrian delivery bicycle" speed="6.95" length="10.30" shape="1219.51,517.86 1217.95,515.05 1217.09,512.49 1216.93,510.21 1217.47,508.19"/>
    </edge>
    <edge id=":1111591220_2" function="internal">
        <lane id=":1111591220_2_0" index="0" allow="pedestrian delivery bicycle" speed="3.65" length="4.67" shape="1219.51,517.86 1219.53,516.42 1219.99,515.65 1220.87,515.55 1222.20,516.12"/>
    </edge>
    <edge id=":1111591220_3" function="internal">
        <lane id=":1111591220_3_0" index="0" allow="pedestrian delivery bicycle" speed="6.95" length="7.06" shape="1220.36,509.55 1220.09,510.78 1220.31,512.28 1221.01,514.06 1222.20,516.12"/>
    </edge>
    <edge id=":1111591220_4" function="internal">
        <lane id=":1111591220_4_0" index="0" disallow="tram rail_urban rail rail_electric rail_fast ship" speed="8.33" length="9.72" shape="1220.36,509.55 1219.08,512.13 1218.06,513.83 1216.90,515.43 1215.18,517.75"/>
    </edge>
    <edge id=":1111591220_5" function="internal">
        <lane id=":1111591220_5_0" index="0" disallow="tram rail_urban rail rail_electric rail_fast ship" speed="8.33" length="9.12" shape="1212.59,515.86 1214.21,513.69 1215.31,512.19 1216.26,510.60 1217.47,508.19"/>
    </edge>
    <edge id=":1111591220_6" function="internal">
        <lane id=":1111591220_6_0" index="0" allow="pedestrian delivery bicycle" speed="6.67" length="3.79" shape="1212.59,515.86 1215.07,513.31 1215.30,513.23"/>
    </edge>
    <edge id=":1111591220_7" function="internal">
        <lane id=":1111591220_7_0" index="0" allow="pedestrian delivery bicycle" speed="6.67" length="8.42" shape="1215.30,513.23 1217.49,512.51 1219.87,513.44 1222.20,516.12"/>
    </edge>
    <edge id=":1111591221_0" function="internal">
        <lane id=":1111591221_0_0" index="0" allow="pedestrian delivery bicycle" speed="3.65" length="4.67" shape="927.35,531.61 927.45,530.17 927.95,529.43 928.85,529.38 930.13,530.03"/>
    </edge>
    <edge id=":1111591226_0" function="internal">
        <lane id=":1111591226_0_0" index="0" allow="pedestrian delivery bicycle" speed="5.56" length="9.40" shape="947.56,554.45 939.46,559.23"/>
    </edge>
    <edge id=":1111591226_1" function="internal">
        <lane id=":1111591226_1_0" index="0" allow="pedestrian delivery bicycle" speed="5.56" length="10.24" shape="947.56,554.45 944.95,555.53 942.65,555.50 940.63,554.37 938.92,552.15"/>
    </edge>
    <edge id=":1111591226_2" function="internal">
        <lane id=":1111591226_2_0" index="0" allow="pedestrian delivery bicycle" speed="3.65" length="4.67" shape="947.56,554.45 946.12,554.37 945.37,553.89 945.31,552.99 945.93,551.69"/>
    </edge>
    <edge id=":1111591226_3" function="internal">
        <lane id=":1111591226_3_0" index="0" allow="pedestrian delivery bicycle" speed="5.02" length="5.02" shape="941.70,550.56 942.54,551.66 943.53,552.21 944.66,552.22 945.93,551.69"/>
    </edge>
    <edge id=":1111591226_4" function="internal">
        <lane id=":1111591226_4_0" index="0" allow="pedestrian delivery bicycle" speed="5.56" length="10.16" shape="941.70,550.56 942.73,553.17 942.69,555.49 941.61,557.50 939.46,559.23"/>
    </edge>
    <edge id=":1111591226_5" function="internal">
        <lane id=":1111591226_5_0" index="0" allow="pedestrian delivery bicycle" speed="3.65" length="4.67" shape="941.70,550.56 941.60,552.00 941.10,552.75 940.21,552.79 938.92,552.15"/>
    </edge>
    <edge id=":1111591226_6" function="internal">
        <lane id=":1111591226_6_0" index="0" allow="pedestrian delivery bicycle" speed="5.10" length="5.06" shape="937.84,556.47 938.90,555.62 939.43,554.61 939.44,553.45 938.92,552.15"/>
    </edge>
    <edge id=":1111591226_7" function="internal">
        <lane id=":1111591226_7_0" index="0" allow="pedestrian delivery bicycle" speed="5.56" length="9.40" shape="937.84,556.47 945.93,551.69"/>
    </edge>
    <edge id=":1111591226_8" function="internal">
        <lane id=":1111591226_8_0" index="0" allow="pedestrian delivery bicycle" speed="3.65" length="4.67" shape="937.84,556.47 939.28,556.55 940.03,557.04 940.09,557.93 939.46,559.23"/>
    </edge>
    <edge id=":1111591229_0" function="internal">
        <lane id=":1111591229_0_0" index="0" allow="pedestrian delivery bicycle" speed="3.65" length="4.67" shape="888.78,574.64 888.92,573.20 889.43,572.47 890.33,572.44 891.60,573.12"/>
    </edge>
    <edge id=":1111591231_0" function="internal">
        <lane id=":1111591231_0_0" index="0" allow="pedestrian delivery bicycle" speed="3.65" length="4.67" shape="1252.00,537.62 1253.21,538.39 1253.63,539.19 1253.25,539.99 1252.06,540.82"/>
    </edge>
    <edge id=":1111591235_0" function="internal">
        <lane id=":1111591235_0_0" index="0" allow="pedestrian delivery bicycle" speed="5.56" length="9.47" shape="900.37,582.43 892.22,587.25"/>
    </edge>
    <edge id=":1111591235_1" function="internal">
        <lane id=":1111591235_1_0" index="0" allow="pedestrian delivery bicycle" speed="5.56" length="10.40" shape="900.37,582.43 897.72,583.54 895.39,583.52 893.37,582.35 891.67,580.04"/>
    </edge>
    <edge id=":1111591235_2" function="internal">
        <lane id=":1111591235_2_0" index="0" allow="pedestrian delivery bicycle" speed="3.65" length="4.67" shape="900.37,582.43 898.93,582.36 898.17,581.88 898.10,580.99 898.72,579.69"/>
    </edge>
    <edge id=":1111591235_3" function="internal">
        <lane id=":1111591235_3_0" index="0" allow="pedestrian delivery bicycle" speed="4.99" length="5.06" shape="894.49,578.52 895.32,579.65 896.30,580.21 897.43,580.23 898.72,579.69"/>
    </edge>
    <edge id=":1111591235_4" function="internal">
        <lane id=":1111591235_4_0" index="0" allow="pedestrian delivery bicycle" speed="5.56" length="10.21" shape="894.49,578.52 895.48,581.18 895.44,583.53 894.35,585.55 892.22,587.25"/>
    </edge>
    <edge id=":1111591235_5" function="internal">
        <lane id=":1111591235_5_0" index="0" allow="pedestrian delivery bicycle" speed="3.65" length="4.67" shape="894.49,578.52 894.36,579.96 893.84,580.69 892.95,580.72 891.67,580.04"/>
    </edge>
    <edge id=":1111591235_6" function="internal">
        <lane id=":1111591235_6_0" index="0" allow="pedestrian delivery bicycle" speed="5.17" length="5.18" shape="890.61,584.49 891.66,583.64 892.19,582.61 892.19,581.41 891.67,580.04"/>
    </edge>
    <edge id=":1111591235_7" function="internal">
        <lane id=":1111591235_7_0" index="0" allow="pedestrian delivery bicycle" speed="5.56" length="9.43" shape="890.61,584.49 898.72,579.69"/>
    </edge>
    <edge id=":1111591235_8" function="internal">
        <lane id=":1111591235_8_0" index="0" allow="pedestrian delivery bicycle" speed="3.65" length="4.67" shape="890.61,584.49 892.05,584.58 892.80,585.07 892.86,585.96 892.22,587.25"/>
    </edge>
    <edge id=":1111591244_0" function="internal">
        <lane id=":1111591244_0_0" index="0" allow="pedestrian delivery bicycle" speed="3.65" length="4.67" shape="1026.90,392.63 1026.95,391.19 1027.42,390.43 1028.31,390.35 1029.62,390.95"/>
    </edge>
    <edge id=":1111591245_0" function="internal">
        <lane id=":1111591245_0_0" index="0" allow="pedestrian delivery bicycle" speed="5.56" length="9.40" shape="932.80,563.16 924.70,567.94"/>
    </edge>
    <edge id=":1111591245_1" function="internal">
        <lane id=":1111591245_1_0" index="0" allow="pedestrian delivery bicycle" speed="5.56" length="10.16" shape="932.80,563.16 930.22,564.22 927.93,564.21 925.91,563.11 924.17,560.93"/>
    </edge>
    <edge id=":1111591245_2" function="internal">
        <lane id=":1111591245_2_0" index="0" allow="pedestrian delivery bicycle" speed="3.65" length="4.67" shape="932.80,563.16 931.36,563.08 930.61,562.60 930.55,561.70 931.17,560.40"/>
    </edge>
    <edge id=":1111591245_3" function="internal">
        <lane id=":1111591245_3_0" index="0" allow="pedestrian delivery bicycle" speed="5.04" length="5.01" shape="926.92,559.30 927.78,560.38 928.78,560.92 929.91,560.93 931.17,560.40"/>
    </edge>
    <edge id=":1111591245_4" function="internal">
        <lane id=":1111591245_4_0" index="0" allow="pedestrian delivery bicycle" speed="5.56" length="10.17" shape="926.92,559.30 927.99,561.88 927.97,564.18 926.88,566.20 924.70,567.94"/>
    </edge>
    <edge id=":1111591245_5" function="internal">
        <lane id=":1111591245_5_0" index="0" allow="pedestrian delivery bicycle" speed="3.65" length="4.67" shape="926.92,559.30 926.85,560.74 926.36,561.50 925.47,561.56 924.17,560.93"/>
    </edge>
    <edge id=":1111591245_6" function="internal">
        <lane id=":1111591245_6_0" index="0" allow="pedestrian delivery bicycle" speed="5.04" length="5.00" shape="923.08,565.18 924.15,564.33 924.68,563.33 924.69,562.20 924.17,560.93"/>
    </edge>
    <edge id=":1111591245_7" function="internal">
        <lane id=":1111591245_7_0" index="0" allow="pedestrian delivery bicycle" speed="5.56" length="9.40" shape="923.08,565.18 931.17,560.40"/>
    </edge>
    <edge id=":1111591245_8" function="internal">
        <lane id=":1111591245_8_0" index="0" allow="pedestrian delivery bicycle" speed="3.65" length="4.67" shape="923.08,565.18 924.52,565.26 925.27,565.75 925.33,566.64 924.70,567.94"/>
    </edge>
    <edge id=":1111591251_0" function="internal">
        <lane id=":1111591251_0_0" index="0" disallow="tram rail_urban rail rail_electric rail_fast ship" speed="8.33" length="10.07" shape="1103.81,399.36 1101.52,401.27 1099.91,402.54 1098.22,403.70 1095.70,405.31"/>
    </edge>
    <edge id=":1111591251_1" function="internal">
        <lane id=":1111591251_1_0" index="0" allow="pedestrian delivery bicycle" speed="6.80" length="3.37" shape="1103.81,399.36 1101.32,400.91 1100.88,400.97"/>
    </edge>
    <edge id=":1111591251_7" function="internal">
        <lane id=":1111591251_7_0" index="0" allow="pedestrian delivery bicycle" speed="6.80" length="7.19" shape="1100.88,400.97 1098.99,401.24 1096.81,400.35 1094.79,398.23"/>
    </edge>
    <edge id=":1111591251_2" function="internal">
        <lane id=":1111591251_2_0" index="0" allow="pedestrian delivery bicycle" speed="4.96" length="5.10" shape="1097.39,396.37 1098.37,397.39 1099.42,397.82 1100.54,397.66 1101.74,396.91"/>
    </edge>
    <edge id=":1111591251_3" function="internal">
        <lane id=":1111591251_3_0" index="0" allow="pedestrian delivery bicycle" speed="6.83" length="10.51" shape="1097.39,396.37 1098.74,398.96 1098.91,401.31 1097.90,403.43 1095.70,405.31"/>
    </edge>
    <edge id=":1111591251_4" function="internal">
        <lane id=":1111591251_4_0" index="0" allow="pedestrian delivery bicycle" speed="3.65" length="4.67" shape="1097.39,396.37 1097.44,397.81 1097.02,398.60 1096.14,398.74 1094.79,398.23"/>
    </edge>
    <edge id=":1111591251_5" function="internal">
        <lane id=":1111591251_5_0" index="0" allow="pedestrian delivery bicycle" speed="5.01" length="5.13" shape="1093.99,402.60 1095.06,401.69 1095.54,400.66 1095.45,399.50 1094.79,398.23"/>
    </edge>
    <edge id=":1111591251_6" function="internal">
        <lane id=":1111591251_6_0" index="0" disallow="tram rail_urban rail rail_electric rail_fast ship" speed="8.33" length="9.63" shape="1093.99,402.60 1096.40,401.06 1098.01,399.96 1099.55,398.75 1101.74,396.91"/>
    </edge>
    <edge id=":1124873695_0" function="internal">
        <lane id=":1124873695_0_0" index="0" allow="pedestrian delivery bicycle" speed="3.65" length="4.67" shape="1039.28,276.23 1039.37,274.79 1039.86,274.05 1040.75,273.99 1042.04,274.63"/>
    </edge>
    <edge id=":132588943_0" function="internal">
        <lane id=":132588943_0_0" index="0" allow="pedestrian motorcycle moped bicycle" speed="5.56" length="19.26" shape="1547.43,697.95 1544.18,700.92 1540.55,704.66 1537.03,708.51 1534.08,711.81"/>
    </edge>
    <edge id=":132588943_1" function="internal">
        <lane id=":132588943_1_0" index="0" allow="pedestrian motorcycle moped bicycle" speed="5.56" length="19.99" shape="1547.43,697.95 1543.57,700.21 1538.51,702.23 1533.27,703.91 1528.88,705.15"/>
    </edge>
    <edge id=":132588943_2" function="internal">
        <lane id=":132588943_2_0" index="0" allow="pedestrian motorcycle moped bicycle" speed="3.65" length="4.67" shape="1547.43,697.95 1546.00,698.08 1545.18,697.71 1544.99,696.84 1545.42,695.46"/>
    </edge>
    <edge id=":132588943_3" function="internal">
        <lane id=":132588943_3_0" index="0" allow="pedestrian motorcycle moped bicycle" speed="5.56" length="18.70" shape="1528.03,702.07 1532.23,700.92 1537.07,699.44 1541.74,697.63 1545.42,695.46"/>
    </edge>
    <edge id=":132588943_4" function="internal">
        <lane id=":132588943_4_0" index="0" allow="pedestrian motorcycle moped bicycle" speed="5.56" length="15.51" shape="1528.03,702.07 1532.16,702.21 1534.95,704.52 1535.79,708.04 1534.08,711.81"/>
    </edge>
    <edge id=":132588943_5" function="internal">
        <lane id=":132588943_5_0" index="0" allow="pedestrian motorcycle moped bicycle" speed="3.65" length="4.67" shape="1528.03,702.07 1529.40,702.52 1530.00,703.18 1529.83,704.06 1528.88,705.15"/>
    </edge>
    <edge id=":132588943_6" function="internal">
        <lane id=":132588943_6_0" index="0" allow="pedestrian motorcycle moped bicycle" speed="5.49" length="10.79" shape="1531.69,709.68 1533.88,706.75 1534.14,705.02 1532.47,704.49 1528.88,705.15"/>
    </edge>
    <edge id=":132588943_7" function="internal">
        <lane id=":132588943_7_0" index="0" allow="pedestrian motorcycle moped bicycle" speed="5.56" length="19.78" shape="1531.69,709.68 1534.70,706.32 1538.35,702.35 1542.10,698.48 1545.42,695.46"/>
    </edge>
    <edge id=":132588943_8" function="internal">
        <lane id=":132588943_8_0" index="0" allow="pedestrian motorcycle moped bicycle" speed="3.65" length="4.67" shape="1531.69,709.68 1533.09,709.32 1533.95,709.55 1534.28,710.38 1534.08,711.81"/>
    </edge>
    <edge id=":132609652_0" function="internal">
        <lane id=":132609652_0_0" index="0" allow="pedestrian motorcycle moped bicycle" speed="5.56" length="16.41" shape="1337.10,886.71 1333.24,885.75 1329.15,884.65 1325.04,883.64 1321.14,882.94"/>
    </edge>
    <edge id=":132609652_1" function="internal">
        <lane id=":132609652_1_0" index="0" allow="pedestrian motorcycle moped bicycle" speed="5.56" length="20.10" shape="1337.10,886.71 1331.04,884.62 1328.78,881.95 1330.32,878.69 1335.66,874.85"/>
    </edge>
    <edge id=":132609652_2" function="internal">
        <lane id=":132609652_2_0" index="0" allow="pedestrian motorcycle moped bicycle" speed="3.65" length="4.68" shape="1337.10,886.71 1336.16,885.61 1336.00,884.73 1336.60,884.07 1337.98,883.63"/>
    </edge>
    <edge id=":132609652_3" function="internal">
        <lane id=":132609652_3_0" index="0" allow="pedestrian motorcycle moped bicycle" speed="5.53" length="10.17" shape="1337.25,877.63 1334.55,879.57 1333.76,881.22 1334.91,882.57 1337.98,883.63"/>
    </edge>
    <edge id=":132609652_4" function="internal">
        <lane id=":132609652_4_0" index="0" allow="pedestrian motorcycle moped bicycle" speed="5.56" length="17.19" shape="1337.25,877.63 1333.60,879.59 1329.43,881.45 1325.14,882.72 1321.14,882.94"/>
    </edge>
    <edge id=":132609652_5" function="internal">