<?xml version="1.0" encoding="UTF-8"?>

<!-- generated on 2022-04-08 11:52:06 by Eclipse SUMO polyconvert Version 1.12.0
<configuration xmlns:xsi="http://www.w3.org/2001/XMLSchema-instance" xsi:noNamespaceSchemaLocation="http://sumo.dlr.de/xsd/polyconvertConfiguration.xsd">

    <input>
        <net-file value="map.net.xml"/>
        <osm-files value="osm_bbox.osm.xml"/>
        <osm.keep-full-type value="true"/>
        <type-file value="C:\Program%20Files%20(x86)\sumo-1.12.0\data\typemap\osmPolyconvert.typ.xml"/>
    </input>

    <output>
        <output-file value="map.poly.xml"/>
    </output>

    <processing>
        <poi-layer-offset value="5"/>
    </processing>

    <report>
        <verbose value="true"/>
    </report>

</configuration>
-->

<additional xmlns:xsi="http://www.w3.org/2001/XMLSchema-instance" xsi:noNamespaceSchemaLocation="http://sumo.dlr.de/xsd/additional_file.xsd">
    <location netOffset="-652955.29,-5483034.64" convBoundary="-3774.04,-852.06,4954.91,3811.48" origBoundary="11.060506,49.472495,11.179865,49.514907" projParameter="+proj=utm +zone=32 +ellps=WGS84 +datum=WGS84 +units=m +no_defs"/>

    <poly id="1049437487" type="building.yes" color="255,230,230" fill="1" layer="-1.00" shape="1349.011041,385.991812 1349.845261,408.521604 1371.147452,407.755692 1370.313634,385.214779 1349.011041,385.991812"/>
    <poly id="1049437488" type="building.yes" color="255,230,230" fill="1" layer="-1.00" shape="1348.536304,341.010491 1349.264621,360.878372 1368.405301,360.173690 1367.677053,340.305804 1348.536304,341.010491"/>
    <poly id="1049437489" type="building.yes" color="255,230,230" fill="1" layer="-1.00" shape="1288.025070,294.709964 1282.775099,292.737033 1274.422719,314.873619 1279.672984,316.835425 1275.151588,328.834036 1293.576736,335.751842 1296.852027,327.066688 1315.685890,334.140751 1318.953032,325.488753 1340.362080,333.514602 1346.693687,316.716661 1288.025070,294.709964"/>
    <poly id="1049437490" type="building.yes" color="255,230,230" fill="1" layer="-1.00" shape="1237.173332,766.269671 1245.178719,755.615531 1238.201335,750.412002 1230.195955,761.066152 1237.173332,766.269671"/>
    <poly id="1049437491" type="building.yes" color="255,230,230" fill="1" layer="-1.00" shape="1208.024400,759.048941 1240.390370,783.226334 1262.561612,753.714971 1230.195549,729.537449 1208.024400,759.048941"/>
    <poly id="1049437492" type="amenity.parking" color="184,184,179" fill="1" layer="-1.00" shape="1013.522794,505.699394 1020.530479,518.579804 1031.482861,512.647707 1029.394832,508.817357 1036.115204,505.168859 1038.223702,509.044290 1054.195638,500.405880 1047.167218,487.491464 1013.522794,505.699394"/>
    <poly id="108939640" type="building.yes" color="255,230,230" fill="1" layer="-1.00" shape="1559.636614,498.320318 1559.925287,486.591425 1563.762731,486.477599 1563.984980,476.326601 1582.294984,476.789555 1581.995876,490.164681 1579.323489,490.088989 1579.275632,491.778662 1579.228719,493.434986 1581.459328,493.754044 1581.514745,492.821098 1583.191480,492.990967 1583.780615,489.848101 1589.976825,490.646619 1589.666670,492.896246 1590.192519,493.011268 1588.906872,503.087646 1588.226103,503.068363 1587.985221,504.919446 1581.663076,504.217490 1581.737072,503.652201 1580.678763,503.655601 1580.493615,504.306743 1574.087397,504.014046 1573.961134,505.145239 1560.432665,504.506214 1560.653683,499.773145 1562.324119,499.909454 1562.100860,498.323355 1559.636614,498.320318"/>
    <poly id="128048928" type="amenity.school" color="237,199,199" fill="1" layer="-2.00" shape="702.878180,503.027292 659.220674,441.355305 730.046760,390.205237 764.534577,441.095102 773.260911,453.967956 702.878180,503.027292"/>
    <poly id="143323112" type="amenity.canteen" color="237,199,199" fill="1" layer="-1.00" shape="1223.171228,843.705537 1217.267673,859.236293 1205.231278,863.791220 1203.941969,864.277669 1199.472090,852.414322 1196.525751,844.599086 1200.767103,843.005659 1199.303696,839.137254 1206.782668,836.333676 1218.671147,831.885820 1219.332147,833.628900 1223.171228,843.705537"/>
    <poly id="143482323" type="building.office" color="255,230,230" fill="1" layer="-1.00" shape="960.334899,898.840362 956.604634,900.047884 955.102187,894.732183 947.433187,896.829852 949.597314,906.436268 955.405866,918.904537 963.099759,928.767101 971.659945,937.207853 979.603642,942.838814 989.668094,947.795376 1003.688593,952.273972 1016.029315,953.356527 1026.282105,952.922782 1040.104118,949.797400 1053.029835,944.021214 1051.714180,941.848045 1050.721621,940.295879 1048.694061,941.262153 1045.164977,935.599957 1042.331760,937.121997 1040.282279,932.703087 1031.659113,936.253346 1023.175207,937.437894 1014.065939,937.926171 1006.156067,936.490289 1008.661264,929.385279 993.849094,924.194574 991.170482,931.795327 982.368188,926.284747 975.560753,920.452216 968.633600,911.156400 966.999005,912.322919 966.315954,911.102132 962.107218,904.608684 963.317435,903.841820 960.334899,898.840362"/>
    <poly id="210940240" type="building.yes" color="255,230,230" fill="1" layer="-1.00" shape="1231.964115,451.525363 1242.601407,451.113968 1242.700451,453.764553 1242.805166,456.470924 1248.726174,456.237759 1248.519593,450.980849 1264.301723,450.358900 1263.629030,433.129274 1231.295736,434.395994 1231.964115,451.525363"/>
    <poly id="210962094" type="building.yes" color="255,230,230" fill="1" layer="-1.00" shape="1266.011447,501.416057 1261.004891,501.608297 1260.446683,487.252196 1265.518432,487.061797 1264.290392,455.631902 1248.726174,456.237759 1242.805166,456.470924 1232.806147,456.866980 1233.554942,476.023400 1235.118424,516.107003 1235.229439,518.846928 1240.294229,518.645185 1240.876455,533.691720 1267.230304,532.656569 1266.011447,501.416057"/>
    <poly id="230967446" type="building.yes" color="255,230,230" fill="1" layer="-1.00" shape="885.776630,465.883644 878.167450,452.986468 867.244621,434.477827 802.433441,472.512281 818.295810,499.381457 820.973221,503.906962 885.776630,465.883644"/>
    <poly id="23165197" type="landuse.allotments" color="194,194,130" fill="1" layer="-3.00" shape="1253.289566,180.641031 1351.861060,263.940413 1349.752759,268.519982 1398.128776,303.085731 1411.684007,289.729628 1437.768612,309.013303 1414.840589,337.768394 1481.066068,367.533255 1494.847635,347.464156 1583.527810,238.256049 1552.117052,80.946551 1435.387518,-14.418089 1409.140315,-19.299186 1344.515332,58.473568 1249.633873,170.469462 1253.289566,180.641031"/>
    <poly id="23201469" type="landuse.forest" color="140,196,107" fill="1" layer="-3.00" shape="1284.448846,289.168672 1414.840589,337.768394 1437.768612,309.013303 1411.684007,289.729628 1398.128776,303.085731 1349.752759,268.519982 1351.861060,263.940413 1253.289566,180.641031 1249.633873,170.469462 1344.515332,58.473568 1288.370701,27.082008 1279.644980,12.406059 1261.551571,5.764737 1240.222068,51.309077 1211.647791,119.822467 1228.564182,127.832151 1236.154126,153.456447 1267.952680,289.392148 1284.448846,289.168672"/>
    <poly id="232775213" type="building.yes" color="255,230,230" fill="1" layer="-1.00" shape="628.581062,520.482152 637.654122,514.607636 643.344186,523.345268 640.782334,525.008661 635.673743,528.313626 634.263891,529.219570 628.581062,520.482152"/>
    <poly id="232775225" type="building.yes" color="255,230,230" fill="1" layer="-1.00" shape="637.654122,514.607636 646.734444,508.733339 652.424501,517.470981 648.880969,519.763113 644.687610,522.481956 643.344186,523.345268 637.654122,514.607636"/>
    <poly id="232775235" type="building.yes" color="255,230,230" fill="1" layer="-1.00" shape="629.597997,482.296090 620.279332,488.397334 626.472743,497.794369 627.956901,496.823763 631.951600,494.210565 635.791401,491.693135 629.597997,482.296090"/>
    <poly id="232775243" type="building.yes" color="255,230,230" fill="1" layer="-1.00" shape="620.279332,488.397334 610.961000,494.487478 617.154106,503.895618 619.790259,502.167555 624.065474,499.373120 626.472743,497.794369 620.279332,488.397334"/>
    <poly id="233673544" type="amenity.social_facility" color="237,199,199" fill="1" layer="-1.00" shape="592.248460,279.369053 639.039122,336.155670 690.127775,292.526293 691.056825,285.788398 682.968483,277.784205 673.395252,274.377381 665.258603,254.957514 636.141331,223.577213 592.248460,279.369053"/>
    <poly id="233673546" type="building.yes" color="255,230,230" fill="1" layer="-1.00" shape="704.593844,313.937839 700.601399,331.136054 706.131964,332.415438 710.124427,315.217227 704.593844,313.937839"/>
    <poly id="233673547" type="building.yes" color="255,230,230" fill="1" layer="-1.00" shape="828.384360,304.475766 840.994572,321.507728 852.134165,313.311019 839.531209,296.279235 828.384360,304.475766"/>
    <poly id="233673550" type="building.yes" color="255,230,230" fill="1" layer="-1.00" shape="807.850933,294.674374 815.072394,304.111720 816.338168,305.749407 827.389553,297.338785 826.117164,295.678659 818.909881,286.252822 807.850933,294.674374"/>
    <poly id="233673551" type="building.yes" color="255,230,230" fill="1" layer="-1.00" shape="693.523192,299.875466 691.320607,309.625775 710.769463,314.189634 712.972082,304.439332 693.523192,299.875466"/>
    <poly id="233673553" type="building.yes" color="255,230,230" fill="1" layer="-1.00" shape="783.895905,274.853063 783.405839,276.296643 781.208426,275.567224 777.440592,286.842044 780.707736,287.935355 779.647666,291.087266 791.266084,294.963538 791.993785,292.803523 789.100123,291.831979 789.630473,290.244908 788.215920,289.771171 792.268936,277.636635 783.895905,274.853063"/>
    <poly id="233673555" type="building.yes" color="255,230,230" fill="1" layer="-1.00" shape="625.530249,362.876128 628.676005,366.736080 629.484511,366.080207 633.372608,370.862190 636.332096,368.464602 641.278109,374.544631 640.566256,375.114222 642.773124,377.824118 641.675594,378.705479 644.597084,382.292126 645.828418,381.292156 648.875885,385.038102 649.358217,384.640053 656.049021,392.849609 666.373552,384.496093 661.882993,378.973992 662.379812,378.576351 654.498479,368.887009 653.541679,369.661079 645.709136,360.039875 648.705786,357.609965 642.085471,349.469156 625.530249,362.876128"/>
    <poly id="233673556" type="amenity.place_of_worship" color="237,199,199" fill="1" layer="-1.00" shape="738.878466,357.401336 736.773318,364.462101 752.055073,368.997741 750.862910,372.980319 763.046345,376.605453 767.584652,361.391796 755.458498,357.790517 754.217553,361.960846 738.878466,357.401336"/>
    <poly id="233673556#1" type="building.church" color="255,230,230" fill="1" layer="-1.00" shape="738.878466,357.401336 736.773318,364.462101 752.055073,368.997741 750.862910,372.980319 763.046345,376.605453 767.584652,361.391796 755.458498,357.790517 754.217553,361.960846 738.878466,357.401336"/>
    <poly id="233673557" type="building.yes" color="255,230,230" fill="1" layer="-1.00" shape="690.536798,371.436977 685.266957,375.571744 688.234423,379.326586 667.547440,395.576361 661.794852,388.283212 660.104787,389.615141 665.843831,396.874532 664.368804,398.034512 668.617172,403.405171 677.511736,396.413176 686.679915,408.018933 706.892447,392.145246 690.536798,371.436977"/>
    <poly id="233673558" type="landuse.recreation_ground" color="194,194,130" fill="1" layer="-3.00" shape="767.584652,361.391796 755.458498,357.790517 754.217553,361.960846 738.878466,357.401336 736.773318,364.462101 752.055073,368.997741 750.862910,372.980319 763.046345,376.605453 762.410707,389.648415 787.420897,425.252537 764.534577,441.095102 730.046760,390.205237 692.826542,367.084793 710.070929,338.478295 724.758357,283.055094 705.269216,277.344172 694.380557,284.357854 643.531517,221.626973 651.079602,211.493122 684.071448,223.424689 722.798012,223.981249 778.120234,258.603435 805.444124,293.916793 790.328988,305.583857 801.281656,322.023886 772.237139,343.155331 767.584652,361.391796"/>
    <poly id="233674973" type="building.industrial" color="255,230,230" fill="1" layer="-1.00" shape="880.140202,295.866485 907.136123,331.471526 940.209789,306.538368 931.342017,294.829391 918.048966,304.845361 905.749529,288.622984 910.525947,285.030759 904.704846,277.346035 880.140202,295.866485"/>
    <poly id="233674978" type="building.yes" color="255,230,230" fill="1" layer="-1.00" shape="907.746949,340.911724 915.805009,351.774571 923.039156,361.523935 933.246509,354.001980 917.954629,333.378624 907.746949,340.911724"/>
    <poly id="233674981" type="building.yes" color="255,230,230" fill="1" layer="-1.00" shape="915.880431,330.594476 917.954629,333.378624 933.246509,354.001980 934.670974,355.922301 963.702209,334.513188 944.919270,309.174351 915.880431,330.594476"/>
    <poly id="233674983" type="building.yes" color="255,230,230" fill="1" layer="-1.00" shape="913.266896,393.199681 941.474703,431.553637 950.386052,425.263428 953.926082,429.012325 1022.481452,386.523954 985.923047,338.955985 913.266896,393.199681"/>
    <poly id="233675420" type="building.yes" color="255,230,230" fill="1" layer="-1.00" shape="929.604869,267.757490 944.870010,287.278729 938.652754,291.842672 951.594535,308.672878 977.688713,289.383757 960.368150,265.131890 966.008939,252.997752 950.867997,247.831361 947.117328,250.517975 945.501615,247.924751 927.891356,261.178722 931.359844,265.926841 929.604869,267.757490"/>
    <poly id="233678928" type="building.yes" color="255,230,230" fill="1" layer="-1.00" shape="992.281971,325.774122 1029.147979,375.542462 1039.703071,367.774636 1002.837098,318.006224 992.281971,325.774122"/>
    <poly id="233678929" type="building.yes" color="255,230,230" fill="1" layer="-1.00" shape="968.812291,267.962243 981.697545,272.664544 980.378252,276.265239 1008.458810,286.513871 1014.001752,271.428859 973.036158,256.466772 968.812291,267.962243"/>
    <poly id="233679711" type="building.yes" color="255,230,230" fill="1" layer="-1.00" shape="1031.917394,315.422552 1047.874671,321.446606 1053.465909,306.707871 1050.317213,305.528736 1052.001103,301.081711 1054.188409,301.911083 1058.596952,290.298507 1046.820867,285.849826 1042.201112,298.012706 1044.230655,298.781995 1042.711726,302.777547 1037.468929,300.805059 1031.917394,315.422552"/>
    <poly id="233679712" type="building.yes" color="255,230,230" fill="1" layer="-1.00" shape="1057.708454,335.385829 1066.868236,338.792798 1080.525792,302.265155 1071.365955,298.858165 1057.708454,335.385829"/>
    <poly id="236432851" type="building.yes" color="255,230,230" fill="1" layer="-1.00" shape="784.771631,432.587207 775.032761,439.443992 780.950931,447.798821 790.689794,440.942047 784.771631,432.587207"/>
    <poly id="236432853" type="building.yes" color="255,230,230" fill="1" layer="-1.00" shape="760.393127,440.166290 751.058578,446.823130 756.359145,454.203773 765.686134,447.557855 760.393127,440.166290"/>
    <poly id="236432854" type="building.yes" color="255,230,230" fill="1" layer="-1.00" shape="664.917707,323.189222 660.263137,327.352462 664.346740,331.884094 669.001309,327.720857 664.917707,323.189222"/>
    <poly id="236432855" type="building.yes" color="255,230,230" fill="1" layer="-1.00" shape="794.340995,267.637927 789.036957,271.693763 793.777920,277.846031 799.081956,273.790200 794.340995,267.637927"/>
    <poly id="236432856" type="building.yes" color="255,230,230" fill="1" layer="-1.00" shape="792.895822,370.370915 801.443828,382.115150 805.973893,378.771776 797.425891,367.027534 792.895822,370.370915"/>
    <poly id="236432857" type="building.yes" color="255,230,230" fill="1" layer="-1.00" shape="679.300608,305.337908 676.075332,307.905992 678.560643,311.024245 681.786231,308.445046 679.300608,305.337908"/>
    <poly id="236432858" type="building.yes" color="255,230,230" fill="1" layer="-1.00" shape="775.459747,295.919943 773.814998,301.558530 779.336184,303.171476 780.980938,297.532891 775.459747,295.919943"/>
    <poly id="236432859" type="building.yes" color="255,230,230" fill="1" layer="-1.00" shape="690.989508,346.351512 678.411892,356.721938 682.555360,361.700274 695.125731,351.329654 690.989508,346.351512"/>
    <poly id="236432860" type="building.yes" color="255,230,230" fill="1" layer="-1.00" shape="799.148230,274.782202 796.852347,276.775651 806.856321,289.072668 809.144961,287.079018 799.148230,274.782202"/>
    <poly id="236432861" type="building.yes" color="255,230,230" fill="1" layer="-1.00" shape="662.551165,364.252057 657.859747,368.180633 664.592719,376.180010 669.284135,372.251439 662.551165,364.252057"/>
    <poly id="236432869" type="leisure.pitch" color="207,245,201" fill="1" layer="-2.00" shape="582.454138,316.273468 609.983485,349.210818 631.565689,331.283887 604.036681,298.335312 582.454138,316.273468"/>
    <poly id="236432869#1" type="sport.tennis" color="79,230,125" fill="1" layer="-2.00" shape="582.454138,316.273468 609.983485,349.210818 631.565689,331.283887 604.036681,298.335312 582.454138,316.273468"/>
    <poly id="236433388" type="building.yes" color="255,230,230" fill="1" layer="-1.00" shape="773.299482,319.855923 772.493101,326.352514 778.935814,327.157042 779.742516,320.649336 773.299482,319.855923"/>
    <poly id="23862958" type="building.yes" color="255,230,230" fill="1" layer="-1.00" shape="1116.207058,792.556246 1115.941478,794.517897 1111.385387,793.910847 1111.062544,796.360387 1109.920951,804.961261 1114.477348,805.557193 1111.540916,827.668930 1101.959326,826.397084 1102.456485,822.650824 1100.131536,822.340417 1091.170846,821.152874 1090.673695,824.899135 1087.994841,824.545364 1063.827519,821.348736 1041.660188,818.420049 1042.184366,814.485421 1039.815960,814.173813 1031.288501,813.043100 1030.764331,816.977728 1014.453126,814.815208 1006.156460,813.724423 1004.177843,828.620765 1086.008445,839.452593 1124.385703,844.530286 1126.364962,829.622864 1132.364780,784.501849 1117.533370,782.547697 1116.074913,782.350756 1114.748605,792.359306 1116.207058,792.556246"/>
    <poly id="23862975" type="landuse.allotments" color="194,194,130" fill="1" layer="-3.00" shape="822.908445,1034.863161 882.595152,1081.180055 902.737066,1095.242900 948.152069,1050.399210 918.576970,1020.049920 927.807512,1010.375553 928.229340,998.761691 839.454332,996.803312 822.908445,1034.863161"/>
    <poly id="246249424" type="building.yes" color="255,230,230" fill="1" layer="-1.00" shape="1302.401782,637.092598 1299.489013,566.565732 1294.649083,566.762650 1289.441617,440.489525 1375.395486,436.945900 1383.505469,633.745873 1374.674606,634.107949 1369.558904,634.319247 1314.643303,636.582092 1309.934105,636.771565 1302.401782,637.092598"/>
    <poly id="246249427" type="building.yes" color="255,230,230" fill="1" layer="-1.00" shape="1036.027927,785.586535 1042.034512,782.051413 1040.512537,779.483045 1034.512878,783.029490 1036.027927,785.586535"/>
    <poly id="246249428" type="building.yes" color="255,230,230" fill="1" layer="-1.00" shape="1120.262194,660.515179 1132.076641,659.725203 1131.297640,648.044051 1119.475926,648.833825 1120.262194,660.515179"/>
    <poly id="246249430" type="building.yes" color="255,230,230" fill="1" layer="-1.00" shape="1159.091860,652.700660 1167.330701,652.254763 1166.892105,644.176641 1158.653567,644.611423 1159.091860,652.700660"/>
    <poly id="246249432" type="building.yes" color="255,230,230" fill="1" layer="-1.00" shape="1215.631353,526.269839 1217.850393,527.767688 1220.217401,524.285652 1217.998360,522.787802 1215.631353,526.269839"/>
    <poly id="24724244" type="landuse.retail" color="194,194,130" fill="1" layer="-3.00" shape="331.096742,115.474515 561.243376,323.063707 592.248460,279.369053 636.141331,223.577213 713.656368,123.141824 679.943094,105.404749 641.484512,91.950979 625.421908,87.571716 550.902310,69.977632 383.896770,30.004544 380.774383,44.646381 331.096742,115.474515"/>
    <poly id="252962664" type="building.yes" color="255,230,230" fill="1" layer="-1.00" shape="952.563707,1016.046886 952.782595,1005.206057 939.773968,1004.939182 939.547864,1015.779807 946.588194,1015.922801 946.562506,1017.090215 950.082827,1017.156157 950.100961,1015.999655 952.563707,1016.046886"/>
    <poly id="259446919" type="landuse.residential" color="235,235,227" fill="1" layer="-3.00" shape="138.152183,3.057259 298.128696,148.847027 527.834600,345.809129 590.719414,418.956960 627.788040,469.607038 672.700678,544.107973 687.638001,567.034670 664.670299,582.452568 659.629171,574.867940 629.725145,585.918776 632.437614,599.500997 567.113031,613.671437 570.245057,623.939026 536.386239,632.342547 532.759330,619.569038 442.143339,640.605660 441.736878,719.504399 476.234186,720.585724 475.650456,741.083956 441.157082,740.125115 438.471627,775.060228 520.008824,784.773853 516.169960,810.453809 497.116531,806.836191 488.729512,868.478005 505.503730,871.697737 503.825737,882.397368 515.014953,906.642196 506.342239,932.319675 497.009188,965.243271 505.416399,965.746770 519.530258,979.538433 464.148883,1035.886700 422.964143,995.635038 418.681547,999.998037 383.835923,1009.309147 326.312600,988.746525 275.938079,951.808980 238.702536,936.801253 171.411198,930.862482 172.963498,908.867321 104.267769,902.600727 93.131692,1018.734168 93.763775,1060.782338 86.609785,1060.303501 78.858846,1076.195124 -72.466445,1003.989147 -124.943028,981.470170 -166.532212,966.109653 -160.867734,922.224343 -158.653553,880.689903 -145.003905,762.601874 -135.730491,722.878305 -121.182780,675.726359 -92.858971,602.260357 46.480701,240.853490 138.152183,3.057259"/>
    <poly id="26640012" type="landuse.industrial" color="209,209,204" fill="1" layer="-3.00" shape="1236.154126,153.456447 1228.564182,127.832151 1211.647791,119.822467 1240.222068,51.309077 1261.551571,5.764737 1279.644980,12.406059 1379.239864,-220.520052 1367.105470,-248.731704 1230.842259,-382.791823 1213.080604,-401.483182 1194.611021,-392.548527 1167.352756,-408.159290 701.040981,-440.810242 683.189882,-434.760126 570.724593,-444.755773 554.032540,-428.103826 550.724376,-419.508200 549.952923,-395.688884 479.268992,-222.501355 758.233713,-113.835388 755.769929,-107.429983 824.707949,-82.303046 841.513583,-51.291034 851.573494,-32.728958 849.572750,-27.067047 846.052254,-17.120304 794.975281,-35.536548 787.381683,-16.604202 766.009672,-10.063982 713.656368,123.141824 749.960220,151.576556 788.071752,191.988590 844.857924,262.876052 898.570373,337.326551 897.387045,366.696862 876.987875,400.220169 781.148697,469.075595 811.512294,514.020044 953.024991,429.865791 1022.565277,387.149326 1077.610247,348.029518 1094.452617,297.796650 1142.843079,313.670250 1157.966893,340.730982 1264.253229,327.702729 1267.952680,289.392148 1236.154126,153.456447"/>
    <poly id="26724334" type="leisure.pitch" color="207,245,201" fill="1" layer="-2.00" shape="886.692274,684.540286 896.630303,678.579338 885.018390,659.339189 875.080341,665.300159 886.692274,684.540286"/>
    <poly id="26724334#1" type="sport.beachvolleyball" color="79,230,125" fill="1" layer="-2.00" shape="886.692274,684.540286 896.630303,678.579338 885.018390,659.339189 875.080341,665.300159 886.692274,684.540286"/>
    <poly id="26724347" type="amenity.parking" color="184,184,179" fill="1" layer="-1.00" shape="832.980050,665.748652 854.143370,711.769105 876.090738,701.952541 857.775023,654.421385 832.980050,665.748652"/>
    <poly id="275118715" type="building.garage" color="255,230,230" fill="1" layer="-1.00" shape="565.918897,403.162349 568.271934,406.087703 572.498276,402.713347 570.152482,399.788195 565.918897,403.162349"/>
    <poly id="275118731" type="building.garage" color="255,230,230" fill="1" layer="-1.00" shape="561.946760,418.625702 563.781689,420.902347 567.919858,417.570008 566.077374,415.304274 562.421214,418.249673 561.946760,418.625702"/>
    <poly id="275118737" type="building.garage" color="255,230,230" fill="1" layer="-1.00" shape="566.655724,414.842168 564.736388,412.474146 560.501878,415.881653 562.421214,418.249673 566.077374,415.304274 566.655724,414.842168"/>
    <poly id="275118739" type="building.garage" color="255,230,230" fill="1" layer="-1.00" shape="572.243494,412.540752 574.113069,414.874001 578.420950,411.435194 576.544134,409.101740 572.977687,411.949531 572.243494,412.540752"/>
    <poly id="275118741" type="building.yes" color="255,230,230" fill="1" layer="-1.00" shape="534.818984,408.261546 533.245800,406.470652 524.112653,414.479668 532.125335,423.627381 536.309388,419.951432 541.258481,415.618379 534.818984,408.261546"/>
    <poly id="275118751" type="building.yes" color="255,230,230" fill="1" layer="-1.00" shape="541.258481,415.618379 542.754183,417.329219 546.841596,413.739559 560.879196,401.440787 565.025822,397.808306 557.090315,388.751716 534.818984,408.261546 541.258481,415.618379"/>
    <poly id="275118752" type="building.yes" color="255,230,230" fill="1" layer="-1.00" shape="522.216649,394.790571 524.594203,397.360592 528.464034,393.775924 542.208405,381.079477 546.278807,377.322461 538.098297,368.470386 516.413693,388.508550 522.216649,394.790571"/>
    <poly id="28055304" type="amenity.parking" color="184,184,179" fill="1" layer="-1.00" shape="1625.755278,311.231876 1637.812369,322.631908 1692.008563,269.665384 1687.573396,262.475187 1673.154554,251.286249 1663.698031,245.055172 1647.372371,239.252490 1638.411370,248.532884 1649.695514,260.867802 1622.798218,282.567501 1625.755278,311.231876"/>
    <poly id="28055371" type="building.greenhouse" color="255,230,230" fill="1" layer="-1.00" shape="1676.229761,306.977099 1690.694483,293.013294 1734.125828,337.777300 1719.661099,351.740991 1676.229761,306.977099"/>
    <poly id="28642035" type="amenity.parking" color="184,184,179" fill="1" layer="-1.00" shape="1059.923958,1042.784622 1039.482446,1021.626015 1044.723985,1017.713306 1052.947967,1026.244835 1202.524129,969.592836 1209.431230,987.788532 1059.923958,1042.784622"/>
    <poly id="28642070" type="amenity.parking" color="184,184,179" fill="1" layer="-1.00" shape="1203.360817,918.184878 1211.162387,934.737075 1268.649725,907.792554 1261.219521,891.695773 1203.360817,918.184878"/>
    <poly id="28658455" type="building.yes" color="255,230,230" fill="1" layer="-1.00" shape="677.266350,446.313440 693.286675,435.939842 713.323407,466.708770 733.913444,453.382343 738.950215,461.122667 745.808541,456.687823 752.735327,467.318305 736.257182,477.990336 733.603375,473.910546 709.882912,489.273697 690.506407,459.513504 687.236107,461.624181 677.266350,446.313440"/>
    <poly id="28732289" type="building.yes" color="255,230,230" fill="1" layer="-1.00" shape="781.102257,354.452335 788.683129,365.023411 806.893557,352.052938 810.380678,356.912754 809.685482,357.404917 822.015079,374.618058 823.339034,373.676363 827.014150,378.808493 807.265392,392.870306 814.824741,403.429693 835.564952,388.650470 865.195822,367.547015 857.315896,356.533515 837.078328,370.959702 817.872175,344.163131 837.029828,330.507440 829.393561,319.845733 808.764263,334.539114 806.309221,331.121272 798.224718,336.878760 800.769842,340.443762 781.102257,354.452335"/>
    <poly id="29177877" type="building.yes" color="255,230,230" fill="1" layer="-1.00" shape="1002.313854,852.809831 1007.322917,862.018180 1016.449181,857.080310 1011.440128,847.871953 1002.313854,852.809831"/>
    <poly id="29177880" type="building.yes" color="255,230,230" fill="1" layer="-1.00" shape="1053.029835,944.021214 1060.824017,937.232418 1068.075050,929.916541 1079.481621,919.936720 1095.054845,907.927426 1093.282928,905.229605 1077.784069,917.941888 1066.382878,928.244494 1058.868299,935.397181 1051.714180,941.848045 1053.029835,944.021214"/>
    <poly id="29177881" type="building.yes" color="255,230,230" fill="1" layer="-1.00" shape="1188.956960,878.027689 1193.791250,877.763780 1197.708041,877.396074 1201.949751,876.815049 1206.994631,875.767217 1205.862209,872.753675 1201.555651,873.577618 1197.087247,874.230114 1193.388647,874.570610 1188.773805,874.762843 1188.956960,878.027689"/>
    <poly id="29177888" type="amenity.parking" color="184,184,179" fill="1" layer="-1.00" shape="875.806707,795.562423 899.975425,831.866618 966.259641,788.000962 932.496191,737.274653 918.116553,746.792674 932.865450,768.891553 936.803555,767.255994 946.846968,783.247991 945.504306,787.938294 933.228345,797.393240 915.016004,769.611857 875.806707,795.562423"/>
    <poly id="295111087" type="amenity.parking" color="184,184,179" fill="1" layer="-1.00" shape="1149.352102,907.180314 1148.312818,903.691034 1156.413242,901.461205 1165.876403,899.737142 1179.179585,898.566596 1187.802568,899.132864 1187.438216,902.793870 1179.325962,902.620287 1169.433602,903.631316 1160.955277,904.871437 1149.352102,907.180314"/>
    <poly id="295111088" type="amenity.parking" color="184,184,179" fill="1" layer="-1.00" shape="1107.514269,930.729823 1105.325426,927.141336 1114.381611,920.065623 1121.212321,915.574854 1130.586986,910.054557 1141.983767,905.815160 1143.100848,909.629265 1134.827037,912.866605 1128.676612,916.108305 1120.612951,920.886872 1113.633375,926.029821 1107.514269,930.729823"/>
    <poly id="295111089" type="amenity.parking" color="184,184,179" fill="1" layer="-1.00" shape="1132.708471,642.999706 1167.002445,641.810102 1166.444902,618.186789 1167.476320,612.720103 1166.640720,584.828007 1130.586181,585.211399 1132.708471,642.999706"/>
    <poly id="295111094" type="amenity.parking" color="184,184,179" fill="1" layer="-1.00" shape="1299.540116,739.841556 1329.250880,763.588409 1349.736436,738.090389 1320.025295,714.354542 1299.540116,739.841556"/>
    <poly id="295111094#1" type="building.yes" color="255,230,230" fill="1" layer="-1.00" shape="1299.540116,739.841556 1329.250880,763.588409 1349.736436,738.090389 1320.025295,714.354542 1299.540116,739.841556"/>
    <poly id="301778178" type="building.yes" color="255,230,230" fill="1" layer="-1.00" shape="679.121658,569.097745 666.095821,547.526529 656.651823,553.190301 661.568071,561.349914 653.981975,565.897866 656.841517,570.650917 664.405882,566.102357 669.648086,574.782911 679.121658,569.097745"/>