<?xml version="1.0" encoding="UTF-8"?>

<!-- generated on 2022-11-21 22:27:57 by Eclipse SUMO netedit Version 1.15.0
-->

<routes xmlns:xsi="http://www.w3.org/2001/XMLSchema-instance" xsi:noNamespaceSchemaLocation="http://sumo.dlr.de/xsd/routes_file.xsd">
    <!-- Routes -->
    <route id="route_ego" edges="E0 E4"/>
    <!-- Vehicles, persons and containers (sorted by depart) -->
    <vehicle id="ego" depart="0.00" route="route_ego"/>
</routes>
