<?xml version="1.0" encoding="UTF-8"?>

<!-- generated on 2022-07-19 11:33:07 by Eclipse SUMO netedit Version 1.13.0
<configuration xmlns:xsi="http://www.w3.org/2001/XMLSchema-instance" xsi:noNamespaceSchemaLocation="http://sumo.dlr.de/xsd/netconvertConfiguration.xsd">

    <input>
        <sumo-net-file value="C:\Users\seegras\Git\driver-dojo\driver_dojo\data\scenarios\Carla\Town03\map.net.xml"/>
    </input>

    <output>
        <output-file value="C:\Users\seegras\Git\driver-dojo\driver_dojo\data\scenarios\Carla\Town03\map.net.xml"/>
    </output>

    <processing>
        <geometry.min-radius.fix.railways value="false"/>
        <geometry.max-grade.fix value="false"/>
        <offset.disable-normalization value="true"/>
        <lefthand value="false"/>
    </processing>

    <junctions>
        <no-turnarounds value="true"/>
        <junctions.corner-detail value="5"/>
        <junctions.limit-turn-speed value="5.5"/>
        <rectangular-lane-cut value="true"/>
    </junctions>

    <pedestrian>
        <walkingareas value="false"/>
    </pedestrian>

    <netedit>
        <route-files value="C:\Users\seegras\Git\driver-dojo\driver_dojo\data\scenarios\Carla\Town03\demo.rou.xml"/>
    </netedit>

    <report>
        <aggregate-warnings value="5"/>
    </report>

</configuration>
-->

<net version="1.9" junctionCornerDetail="5" rectangularLaneCut="true" limitTurnSpeed="5.50" xmlns:xsi="http://www.w3.org/2001/XMLSchema-instance" xsi:noNamespaceSchemaLocation="http://sumo.dlr.de/xsd/net_file.xsd">

    <location netOffset="286.97,269.44" convBoundary="115.19,0.00,456.50,483.34" origBoundary="-286.23,-264.80,306.23,310.27" projParameter="!"/>

    <type id="bidirectional" priority="1" speed="1.39" disallow="pedestrian tram rail_urban rail rail_electric rail_fast ship" width="3.65"/>
    <type id="biking" priority="-1" speed="5.56" allow="bicycle" width="1.50"/>
    <type id="border" priority="0" speed="1.39" disallow="all" discard="0" width="0.10"/>
    <type id="driving" priority="1" speed="13.89" disallow="pedestrian tram rail_urban rail rail_electric rail_fast ship" width="3.65"/>
    <type id="entry" priority="1" speed="22.22" disallow="pedestrian tram rail_urban rail rail_electric rail_fast ship" width="3.65"/>
    <type id="exit" priority="1" speed="22.22" disallow="pedestrian tram rail_urban rail rail_electric rail_fast ship" width="3.65"/>
    <type id="median" priority="0" speed="1.39" disallow="all" discard="0" width="0.10"/>
    <type id="mwyEntry" priority="1" speed="22.22" allow="private emergency authority army vip passenger hov taxi bus coach delivery truck trailer motorcycle evehicle custom1 custom2" width="3.65"/>
    <type id="mwyExit" priority="1" speed="22.22" allow="private emergency authority army vip passenger hov taxi bus coach delivery truck trailer motorcycle evehicle custom1 custom2" width="3.65"/>
    <type id="none" priority="0" speed="1.39" disallow="all" discard="0" width="1.00"/>
    <type id="offRamp" priority="1" speed="22.22" allow="private emergency authority army vip passenger hov taxi bus coach delivery truck trailer motorcycle evehicle custom1 custom2" width="3.65"/>
    <type id="onRamp" priority="1" speed="22.22" allow="private emergency authority army vip passenger hov taxi bus coach delivery truck trailer motorcycle evehicle custom1 custom2" width="3.65"/>
    <type id="parking" priority="1" speed="1.39" disallow="pedestrian tram rail_urban rail rail_electric rail_fast ship" width="2.50"/>
    <type id="rail" priority="3" speed="33.33" allow="rail_urban rail rail_electric rail_fast" width="3.65"/>
    <type id="restricted" priority="0" speed="13.89" disallow="all" width="3.65"/>
    <type id="roadWorks" priority="0" speed="1.39" allow="authority" width="3.65"/>
    <type id="shoulder" priority="0" speed="1.39" disallow="all" discard="0" width="1.00"/>
    <type id="sidewalk" priority="-2" speed="2.78" allow="pedestrian" width="2.50"/>
    <type id="special1" priority="1" speed="22.22" allow="custom1" discard="0" width="3.65"/>
    <type id="special2" priority="1" speed="22.22" allow="custom2" discard="0" width="3.65"/>
    <type id="special3" priority="1" speed="22.22" allow="custom1 custom2" discard="0" width="3.65"/>
    <type id="stop" priority="1" speed="13.89" disallow="pedestrian tram rail_urban rail rail_electric rail_fast ship" width="3.65"/>
    <type id="tram" priority="2" speed="13.89" allow="tram" width="3.65"/>

    <edge id=":106_0" function="internal">
        <lane id=":106_0_0" index="0" disallow="pedestrian tram rail_urban rail rail_electric rail_fast ship" speed="9.25" length="19.28" width="3.50" shape="302.92,138.58 298.34,139.37 295.06,141.85 293.07,146.02 292.38,151.88">
            <param key="origId" value="127_-1"/>
        </lane>
    </edge>
    <edge id=":106_1" function="internal">
        <lane id=":106_1_0" index="0" disallow="pedestrian tram rail_urban rail rail_electric rail_fast ship" speed="13.89" length="34.00" width="3.50" shape="302.92,138.58 268.92,138.56">
            <param key="origId" value="108_1"/>
        </lane>
    </edge>
    <edge id=":106_2" function="internal">
        <lane id=":106_2_0" index="0" disallow="pedestrian tram rail_urban rail rail_electric rail_fast ship" speed="11.71" length="31.40" width="3.50" shape="302.92,138.58 293.32,137.43 286.48,134.21 282.40,128.92 281.07,121.55">
            <param key="origId" value="134_-1"/>
        </lane>
    </edge>
    <edge id=":106_3" function="internal">
        <lane id=":106_3_0" index="0" disallow="pedestrian tram rail_urban rail rail_electric rail_fast ship" speed="9.28" length="19.29" width="3.50" shape="292.57,121.62 293.19,127.47 295.13,131.66 298.38,134.20 302.96,135.08">
            <param key="origId" value="133_-1"/>
        </lane>
    </edge>
    <edge id=":106_4" function="internal">
        <lane id=":106_4_0" index="0" disallow="pedestrian tram rail_urban rail rail_electric rail_fast ship" speed="13.89" length="30.26" width="3.50" shape="292.57,121.62 292.38,151.88">
            <param key="origId" value="160_5"/>
        </lane>
        <lane id=":106_4_1" index="1" disallow="pedestrian tram rail_urban rail rail_electric rail_fast ship" speed="13.89" length="30.26" width="3.50" shape="289.07,121.60 288.88,151.85">
            <param key="origId" value="160_4"/>
        </lane>
    </edge>
    <edge id=":106_6" function="internal">
        <lane id=":106_6_0" index="0" disallow="pedestrian tram rail_urban rail rail_electric rail_fast ship" speed="11.40" length="14.24" width="3.50" shape="289.07,121.60 287.77,129.17 283.98,134.52">
            <param key="origId" value="117_4"/>
        </lane>
    </edge>
    <edge id=":106_14" function="internal">
        <lane id=":106_14_0" index="0" disallow="pedestrian tram rail_urban rail rail_electric rail_fast ship" speed="11.40" length="15.84" width="3.50" shape="283.98,134.52 277.69,137.65 268.92,138.56">
            <param key="origId" value="117_4"/>
        </lane>
    </edge>
    <edge id=":106_7" function="internal">
        <lane id=":106_7_0" index="0" disallow="pedestrian tram rail_urban rail rail_electric rail_fast ship" speed="8.93" length="18.04" width="3.50" shape="268.99,135.06 272.71,134.28 275.38,131.76 277.00,127.51 277.57,121.53">
            <param key="origId" value="120_-1"/>
        </lane>
    </edge>
    <edge id=":106_8" function="internal">
        <lane id=":106_8_0" index="0" disallow="pedestrian tram rail_urban rail rail_electric rail_fast ship" speed="13.89" length="33.97" width="3.50" shape="268.99,135.06 302.96,135.08">
            <param key="origId" value="107_-1"/>
        </lane>
    </edge>
    <edge id=":106_9" function="internal">
        <lane id=":106_9_0" index="0" disallow="pedestrian tram rail_urban rail rail_electric rail_fast ship" speed="11.41" length="29.51" width="3.50" shape="268.99,135.06 277.73,136.26 283.96,139.46 287.68,144.66 288.88,151.85">
            <param key="origId" value="113_-1"/>
        </lane>
    </edge>
    <edge id=":106_10" function="internal">
        <lane id=":106_10_0" index="0" disallow="pedestrian tram rail_urban rail rail_electric rail_fast ship" speed="8.93" length="17.63" width="3.50" shape="277.38,151.78 276.88,146.06 275.31,141.95 272.65,139.45 268.92,138.56">
            <param key="origId" value="111_1"/>
        </lane>
    </edge>
    <edge id=":106_11" function="internal">
        <lane id=":106_11_0" index="0" disallow="pedestrian tram rail_urban rail rail_electric rail_fast ship" speed="13.89" length="30.26" width="3.50" shape="277.38,151.78 277.57,121.53">
            <param key="origId" value="161_-2"/>
        </lane>
        <lane id=":106_11_1" index="1" disallow="pedestrian tram rail_urban rail rail_electric rail_fast ship" speed="13.89" length="30.26" width="3.50" shape="280.88,151.80 281.07,121.55">
            <param key="origId" value="161_-1"/>
        </lane>
    </edge>
    <edge id=":106_13" function="internal">
        <lane id=":106_13_0" index="0" disallow="pedestrian tram rail_urban rail rail_electric rail_fast ship" speed="11.69" length="13.77" width="3.50" shape="280.88,151.80 282.30,144.40 286.17,139.51">
            <param key="origId" value="125_1"/>
        </lane>
    </edge>
    <edge id=":106_15" function="internal">
        <lane id=":106_15_0" index="0" disallow="pedestrian tram rail_urban rail rail_electric rail_fast ship" speed="11.69" length="17.68" width="3.50" shape="286.17,139.51 286.45,139.15 293.34,136.04 302.96,135.08">
            <param key="origId" value="125_1"/>
        </lane>
    </edge>
    <edge id=":172_0" function="internal">
        <lane id=":172_0_0" index="0" disallow="pedestrian tram rail_urban rail rail_electric rail_fast ship" speed="8.55" length="15.98" width="3.50" shape="198.94,147.40,0.06 198.36,142.82,0.04 196.63,139.53,0.03 193.74,137.51,0.02 189.68,136.77">
            <param key="origId" value="183_-1"/>
        </lane>
    </edge>
    <edge id=":172_1" function="internal">
        <lane id=":172_1_0" index="0" disallow="pedestrian tram rail_urban rail rail_electric rail_fast ship" speed="13.89" length="23.96" width="3.50" shape="198.94,147.40,0.06 198.34,123.45">
            <param key="origId" value="200_-1"/>
        </lane>
        <lane id=":172_1_1" index="1" disallow="pedestrian tram rail_urban rail rail_electric rail_fast ship" speed="13.89" length="23.96" width="3.50" shape="202.44,147.43,0.06 201.84,123.46">
            <param key="origId" value="197_-1"/>
        </lane>
    </edge>
    <edge id=":172_3" function="internal">
        <lane id=":172_3_0" index="0" disallow="pedestrian tram rail_urban rail rail_electric rail_fast ship" speed="10.71" length="26.57" width="3.50" shape="202.44,147.43,0.06 203.64,141.41,0.05 207.23,137.16,0.03 213.20,134.68,0.02 221.57,133.99">
            <param key="origId" value="177_-1"/>
        </lane>
    </edge>
    <edge id=":172_4" function="internal">
        <lane id=":172_4_0" index="0" disallow="pedestrian tram rail_urban rail rail_electric rail_fast ship" speed="8.20" length="15.09" width="3.50" shape="221.50,137.48 217.75,138.05,0.02 215.08,139.91,0.03 213.47,143.08,0.04 212.94,147.54,0.06">
            <param key="origId" value="173_1"/>
        </lane>
    </edge>
    <edge id=":172_5" function="internal">
        <lane id=":172_5_0" index="0" disallow="pedestrian tram rail_urban rail rail_electric rail_fast ship" speed="13.89" length="31.82" width="3.50" shape="221.50,137.48 189.68,136.77">
            <param key="origId" value="207_-1"/>
        </lane>
    </edge>
    <edge id=":172_6" function="internal">
        <lane id=":172_6_0" index="0" disallow="pedestrian tram rail_urban rail rail_electric rail_fast ship" speed="10.97" length="8.68" width="3.50" shape="221.50,137.48 212.88,136.46">
            <param key="origId" value="215_-1"/>
        </lane>
    </edge>
    <edge id=":172_14" function="internal">
        <lane id=":172_14_0" index="0" disallow="pedestrian tram rail_urban rail rail_electric rail_fast ship" speed="10.97" length="18.50" width="3.50" shape="212.88,136.46 206.72,133.78 203.04,129.45 201.84,123.46">
            <param key="origId" value="215_-1"/>
        </lane>
    </edge>
    <edge id=":172_7" function="internal">
        <lane id=":172_7_0" index="0" disallow="pedestrian tram rail_urban rail rail_electric rail_fast ship" speed="8.50" length="15.86" width="3.50" shape="212.34,123.51 212.90,128.02 214.62,131.27 217.51,133.26 221.57,133.99">
            <param key="origId" value="210_2"/>
        </lane>
    </edge>
    <edge id=":172_8" function="internal">
        <lane id=":172_8_0" index="0" disallow="pedestrian tram rail_urban rail rail_electric rail_fast ship" speed="13.89" length="24.03" width="3.50" shape="212.34,123.51 212.94,147.54,0.06">
            <param key="origId" value="185_2"/>
        </lane>
        <lane id=":172_8_1" index="1" disallow="pedestrian tram rail_urban rail rail_electric rail_fast ship" speed="13.89" length="24.03" width="3.50" shape="208.84,123.49 209.44,147.50,0.06">
            <param key="origId" value="192_1"/>
        </lane>
    </edge>
    <edge id=":172_10" function="internal">
        <lane id=":172_10_0" index="0" disallow="pedestrian tram rail_urban rail rail_electric rail_fast ship" speed="10.70" length="26.47" width="3.50" shape="208.84,123.49 207.62,129.46 204.02,133.66 198.04,136.10 189.68,136.77">
            <param key="origId" value="217_1"/>
        </lane>
    </edge>
    <edge id=":172_11" function="internal">
        <lane id=":172_11_0" index="0" disallow="pedestrian tram rail_urban rail rail_electric rail_fast ship" speed="8.16" length="14.90" width="3.50" shape="189.76,133.27 193.50,132.73 196.17,130.91 197.79,127.82 198.34,123.45">
            <param key="origId" value="221_-1"/>
        </lane>
    </edge>
    <edge id=":172_12" function="internal">
        <lane id=":172_12_0" index="0" disallow="pedestrian tram rail_urban rail rail_electric rail_fast ship" speed="13.89" length="31.81" width="3.50" shape="189.76,133.27 221.57,133.99">
            <param key="origId" value="206_1"/>
        </lane>
    </edge>
    <edge id=":172_13" function="internal">
        <lane id=":172_13_0" index="0" disallow="pedestrian tram rail_urban rail rail_electric rail_fast ship" speed="11.03" length="8.56" width="3.50" shape="189.76,133.27 198.25,134.31,0.02">
            <param key="origId" value="180_1"/>
        </lane>
    </edge>
    <edge id=":172_15" function="internal">
        <lane id=":172_15_0" index="0" disallow="pedestrian tram rail_urban rail rail_electric rail_fast ship" speed="11.03" length="18.76" width="3.50" shape="198.25,134.31,0.02 198.37,134.32,0.02 204.52,137.05,0.03 208.21,141.44,0.05 209.44,147.50,0.06">
            <param key="origId" value="180_1"/>
        </lane>
    </edge>
    <edge id=":222_0" function="internal">
        <lane id=":222_0_0" index="0" disallow="pedestrian tram rail_urban rail rail_electric rail_fast ship" speed="1.39" length="10.46" width="3.50" shape="365.61,415.84,7.79 365.11,413.09,7.84 363.80,411.15,7.88 361.69,410.01,7.92 358.78,409.68,7.97"/>
    </edge>
    <edge id=":222_1" function="internal">
        <lane id=":222_1_0" index="0" disallow="pedestrian tram rail_urban rail rail_electric rail_fast ship" speed="1.39" length="23.27" width="3.50" shape="365.61,415.84,7.79 364.79,392.59,8.00"/>
        <lane id=":222_1_1" index="1" disallow="pedestrian tram rail_urban rail rail_electric rail_fast ship" speed="13.89" length="23.27" width="3.50" shape="369.11,415.72,7.79 368.29,392.46,8.00"/>
    </edge>
    <edge id=":222_3" function="internal">
        <lane id=":222_3_0" index="0" disallow="pedestrian tram rail_urban rail rail_electric rail_fast ship" speed="1.39" length="23.28" width="3.50" shape="375.29,392.22,8.00 376.11,415.49,7.79"/>
        <lane id=":222_3_1" index="1" disallow="pedestrian tram rail_urban rail rail_electric rail_fast ship" speed="13.89" length="23.28" width="3.50" shape="371.79,392.34,8.00 372.61,415.61,7.79"/>
    </edge>
    <edge id=":222_5" function="internal">
        <lane id=":222_5_0" index="0" disallow="pedestrian tram rail_urban rail rail_electric rail_fast ship" speed="9.76" length="5.88" width="3.50" shape="371.79,392.34,8.00 371.16,398.18,7.99"/>
    </edge>
    <edge id=":222_8" function="internal">
        <lane id=":222_8_0" index="0" disallow="pedestrian tram rail_urban rail rail_electric rail_fast ship" speed="9.76" length="15.91" width="3.50" shape="371.16,398.18,7.99 371.15,398.29,7.99 368.76,402.58,7.98 364.61,405.21,7.98 358.71,406.18,7.97"/>
    </edge>
    <edge id=":222_6" function="internal">
        <lane id=":222_6_0" index="0" disallow="pedestrian tram rail_urban rail rail_electric rail_fast ship" speed="1.39" length="10.37" width="3.50" shape="358.57,399.18,7.97 361.38,398.72,7.98 363.35,397.47,7.98 364.49,395.42,7.99 364.79,392.59,8.00"/>
    </edge>
    <edge id=":222_7" function="internal">
        <lane id=":222_7_0" index="0" disallow="pedestrian tram rail_urban rail rail_electric rail_fast ship" speed="9.83" length="21.64" width="3.50" shape="358.64,402.68,7.97 364.58,403.38,7.92 368.89,405.77,7.88 371.57,409.85,7.84 372.61,415.61,7.79"/>
    </edge>
    <edge id=":257_0" function="internal">
        <lane id=":257_0_0" index="0" disallow="pedestrian tram rail_urban rail rail_electric rail_fast ship" speed="8.49" length="15.81" width="3.50" shape="364.54,286.52,0.08 363.81,282.27,0.06 361.88,279.25,0.04 358.77,277.46,0.02 354.48,276.92">
            <param key="origId" value="266_-1"/>
        </lane>
    </edge>
    <edge id=":257_1" function="internal">
        <lane id=":257_1_0" index="0" disallow="pedestrian tram rail_urban rail rail_electric rail_fast ship" speed="8.40" length="15.87" width="3.50" shape="377.78,276.56 373.41,277.22,0.02 370.33,279.08,0.04 368.54,282.15,0.06 368.04,286.42,0.08">
            <param key="origId" value="267_-1"/>
        </lane>
    </edge>
    <edge id=":257_2" function="internal">
        <lane id=":257_2_0" index="0" disallow="pedestrian tram rail_urban rail rail_electric rail_fast ship" speed="13.89" length="23.31" width="3.50" shape="377.74,273.07 354.43,273.42">
            <param key="origId" value="262_1"/>
        </lane>
    </edge>
    <edge id=":257_3" function="internal">
        <lane id=":257_3_0" index="0" disallow="pedestrian tram rail_urban rail rail_electric rail_fast ship" speed="13.89" length="23.36" width="3.50" shape="354.26,261.92 377.63,261.57">
            <param key="origId" value="263_-5"/>
        </lane>
        <lane id=":257_3_1" index="1" disallow="pedestrian tram rail_urban rail rail_electric rail_fast ship" speed="13.89" length="23.36" width="3.50" shape="354.31,265.42 377.66,265.07">
            <param key="origId" value="263_-4"/>
        </lane>
    </edge>
    <edge id=":298_0" function="internal">
        <lane id=":298_0_0" index="0" disallow="pedestrian tram rail_urban rail rail_electric rail_fast ship" speed="7.64" length="31.27" width="3.50" shape="376.67,453.19,-0.12 375.65,462.84,-0.08 372.58,469.79,-0.05 367.47,474.04,-0.03 360.32,475.60"/>
        <lane id=":298_0_1" index="1" disallow="pedestrian tram rail_urban rail rail_electric rail_fast ship" speed="10.73" length="25.76" width="3.50" shape="373.17,453.19,-0.12 372.36,461.34,-0.08 369.93,467.21,-0.05 365.89,470.80,-0.03 360.23,472.10"/>
    </edge>
    <edge id=":298_2" function="internal">
        <lane id=":298_2_0" index="0" disallow="pedestrian tram rail_urban rail rail_electric rail_fast ship" speed="7.44" length="11.79" width="3.50" shape="359.96,461.60 362.68,461.02,-0.03 364.62,459.42,-0.05 365.78,456.81,-0.08 366.17,453.19,-0.12"/>
        <lane id=":298_2_1" index="1" disallow="pedestrian tram rail_urban rail rail_electric rail_fast ship" speed="8.89" length="17.32" width="3.50" shape="360.05,465.10 364.26,464.27,-0.03 367.27,462.00,-0.06 369.07,458.31,-0.08 369.67,453.19,-0.12"/>
    </edge>
    <edge id=":334_0" function="internal">
        <lane id=":334_0_0" index="0" disallow="pedestrian tram rail_urban rail rail_electric rail_fast ship" speed="13.89" length="32.44" width="3.50" shape="307.52,476.93 275.09,477.75">
            <param key="origId" value="339_-2"/>
        </lane>
        <lane id=":334_0_1" index="1" disallow="pedestrian tram rail_urban rail rail_electric rail_fast ship" speed="13.89" length="32.44" width="3.50" shape="307.43,473.43 275.00,474.25">
            <param key="origId" value="339_-1"/>
        </lane>
    </edge>
    <edge id=":334_2" function="internal">
        <lane id=":334_2_0" index="0" disallow="pedestrian tram rail_urban rail rail_electric rail_fast ship" speed="11.77" length="14.33" width="3.50" shape="307.43,473.43 298.88,472.38 293.95,469.48">
            <param key="origId" value="352_-1"/>
        </lane>
    </edge>
    <edge id=":334_8" function="internal">
        <lane id=":334_8_0" index="0" disallow="pedestrian tram rail_urban rail rail_electric rail_fast ship" speed="11.77" length="17.62" width="3.50" shape="293.95,469.48 292.72,468.75 288.94,462.54 287.54,453.74">
            <param key="origId" value="352_-1"/>
        </lane>
    </edge>
    <edge id=":334_3" function="internal">
        <lane id=":334_3_0" index="0" disallow="pedestrian tram rail_urban rail rail_electric rail_fast ship" speed="8.21" length="14.96" width="3.50" shape="298.04,453.53 298.68,457.73 300.42,460.69 303.25,462.43 307.17,462.93">
            <param key="origId" value="356_-1"/>
        </lane>
    </edge>
    <edge id=":334_4" function="internal">
        <lane id=":334_4_0" index="0" disallow="pedestrian tram rail_urban rail rail_electric rail_fast ship" speed="11.89" length="32.38" width="3.50" shape="294.54,453.60 293.47,462.45 289.86,468.84 283.70,472.77 275.00,474.25">
            <param key="origId" value="357_1"/>
        </lane>
    </edge>
    <edge id=":334_5" function="internal">
        <lane id=":334_5_0" index="0" disallow="pedestrian tram rail_urban rail rail_electric rail_fast ship" speed="8.38" length="15.51" width="3.50" shape="274.74,463.75 278.88,463.04 281.81,461.15 283.53,458.07 284.04,453.81">
            <param key="origId" value="361_-1"/>
        </lane>
    </edge>
    <edge id=":334_6" function="internal">
        <lane id=":334_6_0" index="0" disallow="pedestrian tram rail_urban rail rail_electric rail_fast ship" speed="13.89" length="32.44" width="3.50" shape="274.74,463.75 307.17,462.93">
            <param key="origId" value="338_3"/>
        </lane>
        <lane id=":334_6_1" index="1" disallow="pedestrian tram rail_urban rail rail_electric rail_fast ship" speed="13.89" length="32.44" width="3.50" shape="274.83,467.25 307.26,466.43">
            <param key="origId" value="338_2"/>
        </lane>
    </edge>
    <edge id=":363_0" function="internal">
        <lane id=":363_0_0" index="0" disallow="pedestrian tram rail_urban rail rail_electric rail_fast ship" speed="8.23" length="14.87" width="3.50" shape="198.48,419.67 197.83,415.28,0.04 196.17,412.17,0.08 193.52,410.34,0.11 189.87,409.79,0.15"/>
    </edge>
    <edge id=":363_1" function="internal">
        <lane id=":363_1_0" index="0" disallow="pedestrian tram rail_urban rail rail_electric rail_fast ship" speed="13.89" length="24.03" width="3.50" shape="198.48,419.67 198.27,395.57,-0.05"/>
        <lane id=":363_1_1" index="1" disallow="pedestrian tram rail_urban rail rail_electric rail_fast ship" speed="13.89" length="24.03" width="3.50" shape="201.98,419.56 201.77,395.61,-0.05"/>
    </edge>
    <edge id=":363_3" function="internal">
        <lane id=":363_3_0" index="0" disallow="pedestrian tram rail_urban rail rail_electric rail_fast ship" speed="10.74" length="11.00" width="3.50" shape="201.98,419.56 203.00,413.61 206.12,409.75"/>
    </edge>
    <edge id=":363_14" function="internal">
        <lane id=":363_14_0" index="0" disallow="pedestrian tram rail_urban rail rail_electric rail_fast ship" speed="10.74" length="15.53" width="3.50" shape="206.12,409.75 206.48,409.31 212.41,406.65 220.80,405.63"/>
    </edge>
    <edge id=":363_4" function="internal">
        <lane id=":363_4_0" index="0" disallow="pedestrian tram rail_urban rail rail_electric rail_fast ship" speed="8.21" length="15.01" width="3.50" shape="220.87,409.13 217.08,409.83 214.42,411.75 212.88,414.89 212.47,419.25"/>
    </edge>
    <edge id=":363_5" function="internal">
        <lane id=":363_5_0" index="0" disallow="pedestrian tram rail_urban rail rail_electric rail_fast ship" speed="13.89" length="31.01" width="3.50" shape="220.87,409.13 189.87,409.79,0.15"/>
    </edge>
    <edge id=":363_6" function="internal">
        <lane id=":363_6_0" index="0" disallow="pedestrian tram rail_urban rail rail_electric rail_fast ship" speed="10.69" length="26.65" width="3.50" shape="220.87,409.13 212.46,408.43,-0.01 206.47,405.94,-0.03 202.91,401.67,-0.04 201.77,395.61,-0.05"/>
    </edge>
    <edge id=":363_7" function="internal">
        <lane id=":363_7_0" index="0" disallow="pedestrian tram rail_urban rail rail_electric rail_fast ship" speed="8.15" length="14.99" width="3.50" shape="212.27,395.71,-0.05 212.76,400.12,-0.03 214.35,403.24,-0.02 217.03,405.08,-0.01 220.80,405.63"/>
    </edge>
    <edge id=":363_8" function="internal">
        <lane id=":363_8_0" index="0" disallow="pedestrian tram rail_urban rail rail_electric rail_fast ship" speed="13.89" length="23.61" width="3.50" shape="212.27,395.71,-0.05 212.47,419.25"/>
        <lane id=":363_8_1" index="1" disallow="pedestrian tram rail_urban rail rail_electric rail_fast ship" speed="13.89" length="23.61" width="3.50" shape="208.77,395.68,-0.05 208.97,419.35"/>
    </edge>
    <edge id=":363_10" function="internal">
        <lane id=":363_10_0" index="0" disallow="pedestrian tram rail_urban rail rail_electric rail_fast ship" speed="10.91" length="10.82" width="3.50" shape="208.77,395.68,-0.05 207.53,401.70,-0.00 204.58,405.32,0.03"/>
    </edge>
    <edge id=":363_15" function="internal">
        <lane id=":363_15_0" index="0" disallow="pedestrian tram rail_urban rail rail_electric rail_fast ship" speed="10.91" length="15.71" width="3.50" shape="204.58,405.32,0.03 203.97,406.06,0.04 198.09,408.76,0.09 189.87,409.79,0.15"/>
    </edge>
    <edge id=":363_11" function="internal">
        <lane id=":363_11_0" index="0" disallow="pedestrian tram rail_urban rail rail_electric rail_fast ship" speed="8.44" length="15.42" width="3.50" shape="189.79,406.29,0.15 193.46,405.56,0.10 196.10,403.52,0.06 197.70,400.20,0.01 198.27,395.57,-0.05"/>
    </edge>
    <edge id=":363_12" function="internal">
        <lane id=":363_12_0" index="0" disallow="pedestrian tram rail_urban rail rail_electric rail_fast ship" speed="13.89" length="31.01" width="3.50" shape="189.79,406.29,0.15 220.80,405.63"/>
    </edge>
    <edge id=":363_13" function="internal">
        <lane id=":363_13_0" index="0" disallow="pedestrian tram rail_urban rail rail_electric rail_fast ship" speed="10.75" length="26.21" width="3.50" shape="189.79,406.29,0.15 198.03,406.96,0.10 203.98,409.36,0.06 207.62,413.49,0.03 208.97,419.35"/>
    </edge>
    <edge id=":422_0" function="internal">
        <lane id=":422_0_0" index="0" disallow="pedestrian tram rail_urban rail rail_electric rail_fast ship" speed="7.69" length="13.02" width="3.50" shape="198.59,279.00,-0.04 198.01,276.18,-0.03 196.23,274.17,-0.03 193.23,272.96,-0.01 189.02,272.56"/>
    </edge>
    <edge id=":422_1" function="internal">
        <lane id=":422_1_0" index="0" disallow="pedestrian tram rail_urban rail rail_electric rail_fast ship" speed="13.89" length="31.62" width="3.50" shape="198.59,279.00,-0.04 197.77,272.22,-0.04 195.20,265.36,-0.02 190.87,258.43,-0.01 184.78,251.42"/>
    </edge>
    <edge id=":422_2" function="internal">
        <lane id=":422_2_0" index="0" disallow="pedestrian tram rail_urban rail rail_electric rail_fast ship" speed="13.89" length="34.08" width="3.50" shape="198.59,279.00,-0.04 198.68,244.94,0.04"/>
        <lane id=":422_2_1" index="1" disallow="pedestrian tram rail_urban rail rail_electric rail_fast ship" speed="13.89" length="34.08" width="3.50" shape="202.09,279.03,-0.04 202.18,244.94,0.04"/>
    </edge>
    <edge id=":422_4" function="internal">
        <lane id=":422_4_0" index="0" disallow="pedestrian tram rail_urban rail rail_electric rail_fast ship" speed="10.31" length="8.63" width="3.50" shape="202.09,279.03,-0.04 203.31,274.63,-0.04 206.36,271.94,-0.03"/>
    </edge>
    <edge id=":422_18" function="internal">
        <lane id=":422_18_0" index="0" disallow="pedestrian tram rail_urban rail rail_electric rail_fast ship" speed="10.31" length="15.23" width="3.50" shape="206.36,271.94,-0.03 206.88,271.48,-0.03 212.80,269.56,-0.02 221.08,268.89"/>
    </edge>
    <edge id=":422_5" function="internal">
        <lane id=":422_5_0" index="0" disallow="pedestrian tram rail_urban rail rail_electric rail_fast ship" speed="7.56" length="12.29" width="3.50" shape="221.09,272.39 217.40,272.83,-0.01 214.75,274.10,-0.02 213.14,276.20,-0.03 212.58,279.14,-0.05"/>
    </edge>
    <edge id=":422_6" function="internal">
        <lane id=":422_6_0" index="0" disallow="pedestrian tram rail_urban rail rail_electric rail_fast ship" speed="13.89" length="32.07" width="3.50" shape="221.09,272.39 189.02,272.56"/>
    </edge>
    <edge id=":422_7" function="internal">
        <lane id=":422_7_0" index="0" disallow="pedestrian tram rail_urban rail rail_electric rail_fast ship" speed="13.89" length="41.82" width="3.50" shape="221.09,272.39 215.00,270.95 207.34,266.56 198.09,259.23 187.27,248.96"/>
    </edge>
    <edge id=":422_8" function="internal">
        <lane id=":422_8_0" index="0" disallow="pedestrian tram rail_urban rail rail_electric rail_fast ship" speed="12.75" length="37.67" width="3.50" shape="221.09,272.39 212.82,270.71,0.01 206.91,265.58,0.02 203.36,256.99,0.03 202.18,244.94,0.04"/>
    </edge>