<?xml version="1.0" encoding="UTF-8"?>

<!-- generated on Fri Aug 27 12:16:32 2021 by Eclipse SUMO netedit Version 1.9.0
<configuration xmlns:xsi="http://www.w3.org/2001/XMLSchema-instance" xsi:noNamespaceSchemaLocation="http://sumo.dlr.de/xsd/netconvertConfiguration.xsd">

    <input>
        <sumo-net-file value="/Users/rith/Git/sumo-gym/scripts/maps/Town03_final/Town03.net.xml"/>
    </input>

    <output>
        <output-file value="/Users/rith/Git/sumo-gym/scripts/maps/Town03_final/Town03.net.xml"/>
    </output>

    <processing>
        <geometry.min-radius.fix.railways value="false"/>
        <geometry.max-grade.fix value="false"/>
        <offset.disable-normalization value="true"/>
        <lefthand value="false"/>
    </processing>

    <junctions>
        <no-turnarounds value="true"/>
        <junctions.corner-detail value="5"/>
        <junctions.limit-turn-speed value="5.5"/>
        <rectangular-lane-cut value="true"/>
    </junctions>

    <pedestrian>
        <walkingareas value="false"/>
    </pedestrian>

    <netedit>
        <route-files value="/Users/rith/Git/sumo-gym/scripts/maps/Town03_final/Town03FirstRound_extended_fixed.rou.xml"/>
    </netedit>

    <report>
        <aggregate-warnings value="5"/>
    </report>

</configuration>
-->

<routes xmlns:xsi="http://www.w3.org/2001/XMLSchema-instance" xsi:noNamespaceSchemaLocation="http://sumo.dlr.de/xsd/routes_file.xsd">
    <vType id="DEFAULT_VEHTYPE" speedFactor="normc(0.70,1.00,0.40,2.00)" emissionClass="HBEFA3/PC_G_EU4" guiShape="passenger" height="1.50" minGapLat="0.50" decel="3.00" apparentDecel="3.00"/>
    <vType id="vType_0"/>
    <vType id="vType_ego" minGap="0.00" speedFactor="normc(0.70,1.00,0.40,2.00)" vClass="passenger" minGapLat="0.50" decel="3.00" apparentDecel="3.00"/>
    <route edges="90.0.00 33.0.00 -79.0.00 -10.0.00 -11.0.00 -39.0.00 -27.0.00 -67.0.00 -4.0.00 -25.0.00" color="yellow" id="route_ego"/>
    <vehicle id="ego" type="vType_ego" depart="0.00" departPos="90.00" route="route_ego">
        <param key="has.ssm.device" value="true"/>
        <param key="device.ssm.measures" value="TTC DRAC PET"/>
        <param key="device.ssm.thresholds" value="3.0 3.0 2.0"/>
        <param key="device.ssm.range" value="50.0" />
        <param key="device.ssm.extratime" value="5.0" />
        <param key="device.ssm.file" value="dummy.xml" />
    </vehicle>
    <flow id="flow_0" begin="0.00" departLane="3" color="red" from="-78.0.00" to="3.0.00" end="3600.00" probability="0.15"/>
    <flow id="flow_1" begin="0.00" departLane="4" arrivalLane="4" color="red" from="31.0.00" to="-31.0.00" end="3600.00" probability="0.40"/>
    <flow id="flow_10" begin="0.00" departLane="4" color="red" from="-3.0.00" to="-4.0.00" end="3600.00" probability="0.20"/>
    <flow id="flow_11" begin="0.00" departLane="5" color="red" from="34.0.00" to="-79.0.00" end="3600.00" probability="0.30"/>
    <flow id="flow_12" begin="0.00" color="red" from="-3.0.00" to="-4.0.00" end="3600.00" period="10.00"/>
    <flow id="flow_2" begin="0.00" color="red" from="-8.0.00" to="-67.0.00" end="3600.00" probability="0.30"/>
    <flow id="flow_3" begin="0.00" color="red" from="67.0.00" to="-33.0.00" end="3600.00" probability="0.50"/>
    <flow id="flow_4" begin="0.00" color="red" from="67.0.00" to="8.0.00" end="3600.00" probability="0.60"/>
    <flow id="flow_5" begin="0.00" departLane="4" color="red" from="-78.0.00" to="3.0.00" end="3600.00" probability="0.10"/>
    <flow id="flow_6" begin="0.00" color="red" from="31.0.00" to="-67.0.00" end="3600.00" probability="0.30"/>
    <flow id="flow_7" begin="0.00" color="red" from="-78.0.00" to="-25.0.00" end="3600.00" probability="0.20"/>
    <flow id="flow_8" begin="0.00" color="red" from="34.0.00" to="33.0.00" end="3600.00" probability="0.30"/>
    <flow id="flow_9" begin="0.00" color="red" from="-3.0.00" to="-4.0.00" end="3600.00" probability="0.20"/>
</routes>
