<?xml version="1.0" encoding="UTF-8"?>

<!-- generated on Tue Jul 27 12:56:23 2021 by Eclipse SUMO netedit Version 1.9.0
<configuration xmlns:xsi="http://www.w3.org/2001/XMLSchema-instance" xsi:noNamespaceSchemaLocation="http://sumo.dlr.de/xsd/netconvertConfiguration.xsd">

    <input>
        <sumo-net-file value="/Users/rith/Git/sumo-gym/scripts/maps/Town03_final/Town03.net.xml"/>
    </input>

    <output>
        <output-file value="/Users/rith/Git/sumo-gym/scripts/maps/Town03_final/Town03.net.xml"/>
    </output>

    <processing>
        <geometry.min-radius.fix.railways value="false"/>
        <geometry.max-grade.fix value="false"/>
        <offset.disable-normalization value="true"/>
        <lefthand value="false"/>
    </processing>

    <junctions>
        <no-turnarounds value="true"/>
        <junctions.corner-detail value="5"/>
        <junctions.limit-turn-speed value="5.5"/>
        <rectangular-lane-cut value="true"/>
    </junctions>

    <pedestrian>
        <walkingareas value="false"/>
    </pedestrian>

    <netedit>
        <route-files value="/Users/rith/Git/sumo-gym/scripts/maps/Town03_final/Town03Traf.rou.xml"/>
    </netedit>

    <report>
        <aggregate-warnings value="5"/>
    </report>

</configuration>
-->

<net version="1.9" junctionCornerDetail="5" rectangularLaneCut="true" limitTurnSpeed="5.50" xmlns:xsi="http://www.w3.org/2001/XMLSchema-instance" xsi:noNamespaceSchemaLocation="http://sumo.dlr.de/xsd/net_file.xsd">

    <location netOffset="286.97,269.44" convBoundary="0.00,0.00,597.84,582.58" origBoundary="-286.23,-264.80,306.23,310.27" projParameter="!"/>

    <type id="bidirectional" priority="1" speed="1.39" disallow="pedestrian tram rail_urban rail rail_electric rail_fast ship" width="3.65"/>
    <type id="biking" priority="-1" speed="5.56" allow="bicycle" width="1.50"/>
    <type id="border" priority="0" speed="1.39" disallow="all" discard="0" width="0.10"/>
    <type id="driving" priority="1" speed="13.89" disallow="pedestrian tram rail_urban rail rail_electric rail_fast ship" width="3.65"/>
    <type id="entry" priority="1" speed="22.22" disallow="pedestrian tram rail_urban rail rail_electric rail_fast ship" width="3.65"/>
    <type id="exit" priority="1" speed="22.22" disallow="pedestrian tram rail_urban rail rail_electric rail_fast ship" width="3.65"/>
    <type id="median" priority="0" speed="1.39" disallow="all" discard="0" width="0.10"/>
    <type id="mwyEntry" priority="1" speed="22.22" allow="private emergency authority army vip passenger hov taxi bus coach delivery truck trailer motorcycle evehicle custom1 custom2" width="3.65"/>
    <type id="mwyExit" priority="1" speed="22.22" allow="private emergency authority army vip passenger hov taxi bus coach delivery truck trailer motorcycle evehicle custom1 custom2" width="3.65"/>
    <type id="none" priority="0" speed="1.39" disallow="all" discard="0" width="1.00"/>
    <type id="offRamp" priority="1" speed="22.22" allow="private emergency authority army vip passenger hov taxi bus coach delivery truck trailer motorcycle evehicle custom1 custom2" width="3.65"/>
    <type id="onRamp" priority="1" speed="22.22" allow="private emergency authority army vip passenger hov taxi bus coach delivery truck trailer motorcycle evehicle custom1 custom2" width="3.65"/>
    <type id="parking" priority="1" speed="1.39" disallow="pedestrian tram rail_urban rail rail_electric rail_fast ship" width="2.50"/>
    <type id="rail" priority="3" speed="33.33" allow="rail_urban rail rail_electric rail_fast" width="3.65"/>
    <type id="restricted" priority="0" speed="13.89" disallow="all" width="3.65"/>
    <type id="roadWorks" priority="0" speed="1.39" allow="authority" width="3.65"/>
    <type id="shoulder" priority="0" speed="1.39" disallow="all" discard="0" width="1.00"/>
    <type id="sidewalk" priority="-2" speed="2.78" allow="pedestrian" width="2.50"/>
    <type id="special1" priority="1" speed="22.22" allow="custom1" discard="0" width="3.65"/>
    <type id="special2" priority="1" speed="22.22" allow="custom2" discard="0" width="3.65"/>
    <type id="special3" priority="1" speed="22.22" allow="custom1 custom2" discard="0" width="3.65"/>
    <type id="stop" priority="1" speed="13.89" disallow="pedestrian tram rail_urban rail rail_electric rail_fast ship" width="3.65"/>
    <type id="tram" priority="2" speed="13.89" allow="tram" width="3.65"/>

    <edge id=":106_0" function="internal">
        <lane id=":106_0_0" index="0" disallow="pedestrian tram rail_urban rail rail_electric rail_fast ship" speed="9.25" length="19.28" width="3.50" shape="302.92,138.58 298.34,139.37 295.06,141.85 293.07,146.02 292.38,151.88">
            <param key="origId" value="127_-1"/>
        </lane>
    </edge>
    <edge id=":106_1" function="internal">
        <lane id=":106_1_0" index="0" disallow="pedestrian tram rail_urban rail rail_electric rail_fast ship" speed="13.89" length="34.00" width="3.50" shape="302.92,138.58 268.92,138.56">
            <param key="origId" value="108_1"/>
        </lane>
    </edge>
    <edge id=":106_2" function="internal">
        <lane id=":106_2_0" index="0" disallow="pedestrian tram rail_urban rail rail_electric rail_fast ship" speed="11.71" length="31.40" width="3.50" shape="302.92,138.58 293.32,137.43 286.48,134.21 282.40,128.92 281.07,121.55">
            <param key="origId" value="134_-1"/>
        </lane>
    </edge>
    <edge id=":106_3" function="internal">
        <lane id=":106_3_0" index="0" disallow="pedestrian tram rail_urban rail rail_electric rail_fast ship" speed="9.28" length="19.29" width="3.50" shape="292.57,121.62 293.19,127.47 295.13,131.66 298.38,134.20 302.96,135.08">
            <param key="origId" value="133_-1"/>
        </lane>
    </edge>
    <edge id=":106_4" function="internal">
        <lane id=":106_4_0" index="0" disallow="pedestrian tram rail_urban rail rail_electric rail_fast ship" speed="13.89" length="30.26" width="3.50" shape="292.57,121.62 292.38,151.88">
            <param key="origId" value="160_5"/>
        </lane>
        <lane id=":106_4_1" index="1" disallow="pedestrian tram rail_urban rail rail_electric rail_fast ship" speed="13.89" length="30.26" width="3.50" shape="289.07,121.60 288.88,151.85">
            <param key="origId" value="160_4"/>
        </lane>
    </edge>
    <edge id=":106_6" function="internal">
        <lane id=":106_6_0" index="0" disallow="pedestrian tram rail_urban rail rail_electric rail_fast ship" speed="11.40" length="15.63" width="3.50" shape="289.07,121.60 287.77,129.17 283.98,134.52 282.73,135.14">
            <param key="origId" value="117_4"/>
        </lane>
    </edge>
    <edge id=":106_14" function="internal">
        <lane id=":106_14_0" index="0" disallow="pedestrian tram rail_urban rail rail_electric rail_fast ship" speed="11.40" length="14.45" width="3.50" shape="282.73,135.14 277.69,137.65 268.92,138.56">
            <param key="origId" value="117_4"/>
        </lane>
    </edge>
    <edge id=":106_7" function="internal">
        <lane id=":106_7_0" index="0" disallow="pedestrian tram rail_urban rail rail_electric rail_fast ship" speed="8.93" length="18.04" width="3.50" shape="268.99,135.06 272.71,134.28 275.38,131.76 277.00,127.51 277.57,121.53">
            <param key="origId" value="120_-1"/>
        </lane>
    </edge>
    <edge id=":106_8" function="internal">
        <lane id=":106_8_0" index="0" disallow="pedestrian tram rail_urban rail rail_electric rail_fast ship" speed="13.89" length="33.97" width="3.50" shape="268.99,135.06 302.96,135.08">
            <param key="origId" value="107_-1"/>
        </lane>
    </edge>
    <edge id=":106_9" function="internal">
        <lane id=":106_9_0" index="0" disallow="pedestrian tram rail_urban rail rail_electric rail_fast ship" speed="11.41" length="29.51" width="3.50" shape="268.99,135.06 277.73,136.26 283.96,139.46 287.68,144.66 288.88,151.85">
            <param key="origId" value="113_-1"/>
        </lane>
    </edge>
    <edge id=":106_10" function="internal">
        <lane id=":106_10_0" index="0" disallow="pedestrian tram rail_urban rail rail_electric rail_fast ship" speed="8.93" length="17.63" width="3.50" shape="277.38,151.78 276.88,146.06 275.31,141.95 272.65,139.45 268.92,138.56">
            <param key="origId" value="111_1"/>
        </lane>
    </edge>
    <edge id=":106_11" function="internal">
        <lane id=":106_11_0" index="0" disallow="pedestrian tram rail_urban rail rail_electric rail_fast ship" speed="13.89" length="30.26" width="3.50" shape="277.38,151.78 277.57,121.53">
            <param key="origId" value="161_-2"/>
        </lane>
        <lane id=":106_11_1" index="1" disallow="pedestrian tram rail_urban rail rail_electric rail_fast ship" speed="13.89" length="30.26" width="3.50" shape="280.88,151.80 281.07,121.55">
            <param key="origId" value="161_-1"/>
        </lane>
    </edge>
    <edge id=":106_13" function="internal">
        <lane id=":106_13_0" index="0" disallow="pedestrian tram rail_urban rail rail_electric rail_fast ship" speed="11.69" length="15.06" width="3.50" shape="280.88,151.80 282.30,144.40 286.45,139.15 287.21,138.81">
            <param key="origId" value="125_1"/>
        </lane>
    </edge>
    <edge id=":106_15" function="internal">
        <lane id=":106_15_0" index="0" disallow="pedestrian tram rail_urban rail rail_electric rail_fast ship" speed="11.69" length="16.39" width="3.50" shape="287.21,138.81 293.34,136.04 302.96,135.08">
            <param key="origId" value="125_1"/>
        </lane>
    </edge>
    <edge id=":172_0" function="internal">
        <lane id=":172_0_0" index="0" disallow="pedestrian tram rail_urban rail rail_electric rail_fast ship" speed="8.55" length="15.98" width="3.50" shape="198.94,147.40,0.06 198.36,142.82,0.04 196.63,139.53,0.03 193.74,137.51,0.02 189.68,136.77">
            <param key="origId" value="183_-1"/>
        </lane>
    </edge>
    <edge id=":172_1" function="internal">
        <lane id=":172_1_0" index="0" disallow="pedestrian tram rail_urban rail rail_electric rail_fast ship" speed="13.89" length="23.96" width="3.50" shape="198.94,147.40,0.06 198.34,123.45">
            <param key="origId" value="200_-1"/>
        </lane>
        <lane id=":172_1_1" index="1" disallow="pedestrian tram rail_urban rail rail_electric rail_fast ship" speed="13.89" length="23.96" width="3.50" shape="202.44,147.43,0.06 201.84,123.46">
            <param key="origId" value="197_-1"/>
        </lane>
    </edge>
    <edge id=":172_3" function="internal">
        <lane id=":172_3_0" index="0" disallow="pedestrian tram rail_urban rail rail_electric rail_fast ship" speed="10.71" length="26.57" width="3.50" shape="202.44,147.43,0.06 203.64,141.41,0.05 207.23,137.16,0.03 213.20,134.68,0.02 221.57,133.99">
            <param key="origId" value="177_-1"/>
        </lane>
    </edge>
    <edge id=":172_4" function="internal">
        <lane id=":172_4_0" index="0" disallow="pedestrian tram rail_urban rail rail_electric rail_fast ship" speed="8.20" length="15.09" width="3.50" shape="221.50,137.48 217.75,138.05,0.02 215.08,139.91,0.03 213.47,143.08,0.04 212.94,147.54,0.06">
            <param key="origId" value="173_1"/>
        </lane>
    </edge>
    <edge id=":172_5" function="internal">
        <lane id=":172_5_0" index="0" disallow="pedestrian tram rail_urban rail rail_electric rail_fast ship" speed="13.89" length="31.82" width="3.50" shape="221.50,137.48 189.68,136.77">
            <param key="origId" value="207_-1"/>
        </lane>
    </edge>
    <edge id=":172_6" function="internal">
        <lane id=":172_6_0" index="0" disallow="pedestrian tram rail_urban rail rail_electric rail_fast ship" speed="10.97" length="11.12" width="3.50" shape="221.50,137.48 212.88,136.46 210.64,135.49">
            <param key="origId" value="215_-1"/>
        </lane>
    </edge>
    <edge id=":172_14" function="internal">
        <lane id=":172_14_0" index="0" disallow="pedestrian tram rail_urban rail rail_electric rail_fast ship" speed="10.97" length="16.07" width="3.50" shape="210.64,135.49 206.72,133.78 203.04,129.45 201.84,123.46">
            <param key="origId" value="215_-1"/>
        </lane>
    </edge>
    <edge id=":172_7" function="internal">
        <lane id=":172_7_0" index="0" disallow="pedestrian tram rail_urban rail rail_electric rail_fast ship" speed="8.50" length="15.86" width="3.50" shape="212.34,123.51 212.90,128.02 214.62,131.27 217.51,133.26 221.57,133.99">
            <param key="origId" value="210_2"/>
        </lane>
    </edge>
    <edge id=":172_8" function="internal">
        <lane id=":172_8_0" index="0" disallow="pedestrian tram rail_urban rail rail_electric rail_fast ship" speed="13.89" length="24.03" width="3.50" shape="212.34,123.51 212.94,147.54,0.06">
            <param key="origId" value="185_2"/>
        </lane>
        <lane id=":172_8_1" index="1" disallow="pedestrian tram rail_urban rail rail_electric rail_fast ship" speed="13.89" length="24.03" width="3.50" shape="208.84,123.49 209.44,147.50,0.06">
            <param key="origId" value="192_1"/>
        </lane>
    </edge>
    <edge id=":172_10" function="internal">
        <lane id=":172_10_0" index="0" disallow="pedestrian tram rail_urban rail rail_electric rail_fast ship" speed="10.70" length="26.47" width="3.50" shape="208.84,123.49 207.62,129.46 204.02,133.66 198.04,136.10 189.68,136.77">
            <param key="origId" value="217_1"/>
        </lane>
    </edge>
    <edge id=":172_11" function="internal">
        <lane id=":172_11_0" index="0" disallow="pedestrian tram rail_urban rail rail_electric rail_fast ship" speed="8.16" length="14.90" width="3.50" shape="189.76,133.27 193.50,132.73 196.17,130.91 197.79,127.82 198.34,123.45">
            <param key="origId" value="221_-1"/>
        </lane>
    </edge>
    <edge id=":172_12" function="internal">
        <lane id=":172_12_0" index="0" disallow="pedestrian tram rail_urban rail rail_electric rail_fast ship" speed="13.89" length="31.81" width="3.50" shape="189.76,133.27 221.57,133.99">
            <param key="origId" value="206_1"/>
        </lane>
    </edge>
    <edge id=":172_13" function="internal">
        <lane id=":172_13_0" index="0" disallow="pedestrian tram rail_urban rail rail_electric rail_fast ship" speed="11.03" length="10.99" width="3.50" shape="189.76,133.27 198.37,134.32,0.02 200.48,135.26,0.02">
            <param key="origId" value="180_1"/>
        </lane>
    </edge>
    <edge id=":172_15" function="internal">
        <lane id=":172_15_0" index="0" disallow="pedestrian tram rail_urban rail rail_electric rail_fast ship" speed="11.03" length="16.34" width="3.50" shape="200.48,135.26,0.02 204.52,137.05,0.03 208.21,141.44,0.05 209.44,147.50,0.06">
            <param key="origId" value="180_1"/>
        </lane>
    </edge>
    <edge id=":222_0" function="internal">
        <lane id=":222_0_0" index="0" disallow="pedestrian tram rail_urban rail rail_electric rail_fast ship" speed="8.59" length="16.26" width="3.50" shape="369.12,415.99,7.76 368.34,411.62,7.82 366.35,408.53,7.86 363.14,406.71,7.91 358.71,406.18,7.97">
            <param key="origId" value="249_-1"/>
        </lane>
    </edge>
    <edge id=":222_1" function="internal">
        <lane id=":222_1_0" index="0" disallow="pedestrian tram rail_urban rail rail_electric rail_fast ship" speed="13.89" length="23.54" width="3.50" shape="369.12,415.99,7.76 368.29,392.46,8.00">
            <param key="origId" value="246_-1"/>
        </lane>
    </edge>
    <edge id=":222_2" function="internal">
        <lane id=":222_2_0" index="0" disallow="pedestrian tram rail_urban rail rail_electric rail_fast ship" speed="9.76" length="7.70" width="3.50" shape="369.12,415.99,7.76 369.77,410.05,7.82 370.61,408.54,7.84">
            <param key="origId" value="223_1"/>
        </lane>
    </edge>
    <edge id=":222_12" function="internal">
        <lane id=":222_12_0" index="0" disallow="pedestrian tram rail_urban rail rail_electric rail_fast ship" speed="9.76" length="14.05" width="3.50" shape="370.61,408.54,7.84 372.16,405.77,7.88 376.30,403.14,7.93 382.19,402.17,8.00">
            <param key="origId" value="223_1"/>
        </lane>
    </edge>
    <edge id=":222_3" function="internal">
        <lane id=":222_3_0" index="0" disallow="pedestrian tram rail_urban rail rail_electric rail_fast ship" speed="8.46" length="16.05" width="3.50" shape="382.26,405.67,8.00 377.92,406.39,7.93 374.86,408.33,7.88 373.09,411.49,7.82 372.62,415.87,7.76">
            <param key="origId" value="226_-1"/>
        </lane>
    </edge>
    <edge id=":222_4" function="internal">
        <lane id=":222_4_0" index="0" disallow="pedestrian tram rail_urban rail rail_electric rail_fast ship" speed="13.89" length="23.56" width="3.50" shape="382.26,405.67,8.00 358.71,406.18,7.97">
            <param key="origId" value="237_-1"/>
        </lane>
    </edge>
    <edge id=":222_5" function="internal">
        <lane id=":222_5_0" index="0" disallow="pedestrian tram rail_urban rail rail_electric rail_fast ship" speed="9.88" length="21.85" width="3.50" shape="382.26,405.67,8.00 376.33,404.95,8.00 372.02,402.51,8.00 369.34,398.35,8.00 368.29,392.46,8.00">
            <param key="origId" value="227_-1"/>
        </lane>
    </edge>
    <edge id=":222_6" function="internal">
        <lane id=":222_6_0" index="0" disallow="pedestrian tram rail_urban rail rail_electric rail_fast ship" speed="8.60" length="16.27" width="3.50" shape="371.79,392.34,8.00 372.57,396.72,8.00 374.57,399.82,8.00 377.77,401.64,8.00 382.19,402.17,8.00">
            <param key="origId" value="228_1"/>
        </lane>
    </edge>
    <edge id=":222_7" function="internal">
        <lane id=":222_7_0" index="0" disallow="pedestrian tram rail_urban rail rail_electric rail_fast ship" speed="13.89" length="23.54" width="3.50" shape="371.79,392.34,8.00 372.62,415.87,7.76">
            <param key="origId" value="245_1"/>
        </lane>
    </edge>
    <edge id=":222_8" function="internal">
        <lane id=":222_8_0" index="0" disallow="pedestrian tram rail_urban rail rail_electric rail_fast ship" speed="9.76" length="7.73" width="3.50" shape="371.79,392.34,8.00 371.15,398.29,7.99 370.30,399.82,7.99">
            <param key="origId" value="253_-1"/>
        </lane>
    </edge>
    <edge id=":222_13" function="internal">
        <lane id=":222_13_0" index="0" disallow="pedestrian tram rail_urban rail rail_electric rail_fast ship" speed="9.76" length="14.06" width="3.50" shape="370.30,399.82,7.99 368.76,402.58,7.98 364.61,405.21,7.98 358.71,406.18,7.97">
            <param key="origId" value="253_-1"/>
        </lane>
    </edge>
    <edge id=":222_9" function="internal">
        <lane id=":222_9_0" index="0" disallow="pedestrian tram rail_urban rail rail_electric rail_fast ship" speed="8.46" length="16.08" width="3.50" shape="358.64,402.68,7.97 362.99,401.96,7.98 366.05,400.02,7.98 367.82,396.86,7.99 368.29,392.46,8.00">
            <param key="origId" value="256_-1"/>
        </lane>
    </edge>
    <edge id=":222_10" function="internal">
        <lane id=":222_10_0" index="0" disallow="pedestrian tram rail_urban rail rail_electric rail_fast ship" speed="13.89" length="23.55" width="3.50" shape="358.64,402.68,7.97 382.19,402.17,8.00">
            <param key="origId" value="236_1"/>
        </lane>
    </edge>
    <edge id=":222_11" function="internal">
        <lane id=":222_11_0" index="0" disallow="pedestrian tram rail_urban rail rail_electric rail_fast ship" speed="9.88" length="21.85" width="3.50" shape="358.64,402.68,7.97 364.58,403.40,7.91 368.90,405.84,7.86 371.57,409.99,7.82 372.62,415.87,7.76">
            <param key="origId" value="252_-1"/>
        </lane>
    </edge>
    <edge id=":257_0" function="internal">
        <lane id=":257_0_0" index="0" disallow="pedestrian tram rail_urban rail rail_electric rail_fast ship" speed="8.49" length="15.81" width="3.50" shape="364.54,286.52,0.08 363.81,282.27,0.06 361.88,279.25,0.04 358.77,277.46,0.02 354.48,276.92">
            <param key="origId" value="266_-1"/>
        </lane>
    </edge>
    <edge id=":257_1" function="internal">
        <lane id=":257_1_0" index="0" disallow="pedestrian tram rail_urban rail rail_electric rail_fast ship" speed="8.40" length="15.87" width="3.50" shape="377.78,276.56 373.41,277.22,0.02 370.33,279.08,0.04 368.54,282.15,0.06 368.04,286.42,0.08">
            <param key="origId" value="267_-1"/>
        </lane>
    </edge>
    <edge id=":257_2" function="internal">
        <lane id=":257_2_0" index="0" disallow="pedestrian tram rail_urban rail rail_electric rail_fast ship" speed="13.89" length="23.31" width="3.50" shape="377.74,273.07 354.43,273.42">
            <param key="origId" value="262_1"/>
        </lane>
    </edge>
    <edge id=":257_3" function="internal">
        <lane id=":257_3_0" index="0" disallow="pedestrian tram rail_urban rail rail_electric rail_fast ship" speed="13.89" length="23.36" width="3.50" shape="354.26,261.92 377.63,261.57">
            <param key="origId" value="263_-5"/>
        </lane>
        <lane id=":257_3_1" index="1" disallow="pedestrian tram rail_urban rail rail_electric rail_fast ship" speed="13.89" length="23.36" width="3.50" shape="354.31,265.42 377.66,265.07">
            <param key="origId" value="263_-4"/>
        </lane>
    </edge>
    <edge id=":268_0" function="internal">
        <lane id=":268_0_0" index="0" disallow="pedestrian tram rail_urban rail rail_electric rail_fast ship" speed="13.89" length="23.19" width="3.50" shape="451.77,477.34 444.97,476.76 440.38,475.50 435.79,474.30 428.99,473.88">
            <param key="origId" value="288_-1"/>
        </lane>
        <lane id=":268_0_1" index="1" disallow="pedestrian tram rail_urban rail rail_electric rail_fast ship" speed="13.89" length="23.19" width="3.50" shape="451.77,473.84 444.95,473.26 440.34,472.00 435.73,470.80 428.90,470.38">
            <param key="origId" value="285_2"/>
        </lane>
    </edge>
    <edge id=":268_2" function="internal">
        <lane id=":268_2_0" index="0" disallow="pedestrian tram rail_urban rail rail_electric rail_fast ship" speed="8.17" length="14.59" width="3.50" shape="441.88,455.14,0.01 442.53,458.73,0.01 444.40,461.29,0.01 447.48,462.83,0.00 451.77,463.34">
            <param key="origId" value="289_-1"/>
        </lane>
    </edge>
    <edge id=":268_3" function="internal">
        <lane id=":268_3_0" index="0" disallow="pedestrian tram rail_urban rail rail_electric rail_fast ship" speed="8.03" length="14.19" width="3.50" shape="428.64,459.88 432.95,459.29,0.05 436.00,457.78,0.09 437.79,455.34,0.12 438.32,451.97,0.16">
            <param key="origId" value="269_-3"/>
        </lane>
    </edge>
    <edge id=":268_4" function="internal">
        <lane id=":268_4_0" index="0" disallow="pedestrian tram rail_urban rail rail_electric rail_fast ship" speed="13.89" length="23.45" width="3.50" shape="428.64,459.88 435.54,460.30 440.21,461.50 444.87,462.76 451.77,463.34">
            <param key="origId" value="273_-3"/>
        </lane>
        <lane id=":268_4_1" index="1" disallow="pedestrian tram rail_urban rail rail_electric rail_fast ship" speed="13.89" length="23.45" width="3.50" shape="428.73,463.38 435.60,463.80 440.25,465.00 444.90,466.26 451.77,466.84">
            <param key="origId" value="280_-2"/>
        </lane>
    </edge>
    <edge id=":29.28_0" function="internal">
        <lane id=":29.28_0_0" index="0" allow="pedestrian" speed="2.78" length="12.43" width="2.00" shape="57.30,170.65 64.24,160.34"/>
        <lane id=":29.28_0_1" index="1" disallow="all" speed="1.39" length="10.69" width="0.63" shape="58.47,170.64 64.26,161.66"/>
        <lane id=":29.28_0_2" index="2" disallow="all" speed="1.39" length="9.94" width="0.50" shape="58.97,170.63 64.26,162.22"/>
        <lane id=":29.28_0_3" index="3" disallow="all" speed="1.39" length="1.06" width="0.50" shape="64.22,170.60 64.21,170.65 64.14,170.33 64.14,169.92 64.34,169.72"/>
        <lane id=":29.28_0_4" index="4" disallow="all" speed="1.39" length="0.39" width="0.63" shape="64.34,170.60 64.32,170.62 64.29,170.50 64.28,170.36 64.35,170.29"/>
    </edge>
    <edge id=":298_0" function="internal">
        <lane id=":298_0_0" index="0" disallow="pedestrian tram rail_urban rail rail_electric rail_fast ship" speed="13.89" length="23.90" width="3.50" shape="383.58,475.02 359.69,475.61">
            <param key="origId" value="307_-2"/>
        </lane>
        <lane id=":298_0_1" index="1" disallow="pedestrian tram rail_urban rail rail_electric rail_fast ship" speed="13.89" length="23.90" width="3.50" shape="383.49,471.52 359.60,472.12">
            <param key="origId" value="307_-1"/>
        </lane>
    </edge>
    <edge id=":298_2" function="internal">
        <lane id=":298_2_0" index="0" disallow="pedestrian tram rail_urban rail rail_electric rail_fast ship" speed="8.15" length="14.95" width="3.50" shape="373.17,452.69,-0.13 373.80,456.43,-0.09 375.68,459.07,-0.07 378.82,460.60,-0.04 383.22,461.03">
            <param key="origId" value="324_-1"/>
        </lane>
    </edge>
    <edge id=":298_3" function="internal">
        <lane id=":298_3_0" index="0" disallow="pedestrian tram rail_urban rail rail_electric rail_fast ship" speed="8.43" length="15.46" width="3.50" shape="359.33,461.62 363.86,460.96,-0.04 367.09,459.26,-0.07 369.02,456.50,-0.09 369.67,452.69,-0.13">
            <param key="origId" value="325_-3"/>
        </lane>
    </edge>
    <edge id=":298_4" function="internal">
        <lane id=":298_4_0" index="0" disallow="pedestrian tram rail_urban rail rail_electric rail_fast ship" speed="13.89" length="23.90" width="3.50" shape="359.33,461.62 383.22,461.03">
            <param key="origId" value="306_3"/>
        </lane>
        <lane id=":298_4_1" index="1" disallow="pedestrian tram rail_urban rail rail_electric rail_fast ship" speed="13.89" length="23.90" width="3.50" shape="359.42,465.12 383.31,464.53">
            <param key="origId" value="306_2"/>
        </lane>
    </edge>
    <edge id=":30.29_0" function="internal">
        <lane id=":30.29_0_0" index="0" disallow="all" speed="1.39" length="3.10" width="0.63" shape="51.01,161.74 51.74,161.83 52.40,162.12 53.01,162.60 53.55,163.27"/>
        <lane id=":30.29_0_1" index="1" disallow="all" speed="1.39" length="3.41" width="0.50" shape="51.01,162.31 52.15,162.36 53.05,162.54 53.72,162.84 54.16,163.27"/>
        <lane id=":30.29_0_2" index="2" disallow="all" speed="1.39" length="15.51" width="0.50" shape="51.06,169.81 56.69,169.36 60.55,168.12 62.65,166.07 62.99,163.21"/>
        <lane id=":30.29_0_3" index="3" disallow="all" speed="1.39" length="16.44" width="0.63" shape="51.07,170.37 56.83,169.89 60.88,168.54 63.21,166.31 63.82,163.21"/>
    </edge>
    <edge id=":334_0" function="internal">
        <lane id=":334_0_0" index="0" disallow="pedestrian tram rail_urban rail rail_electric rail_fast ship" speed="13.89" length="32.44" width="3.50" shape="307.52,476.93 275.09,477.75">
            <param key="origId" value="339_-2"/>
        </lane>
        <lane id=":334_0_1" index="1" disallow="pedestrian tram rail_urban rail rail_electric rail_fast ship" speed="13.89" length="32.44" width="3.50" shape="307.43,473.43 275.00,474.25">
            <param key="origId" value="339_-1"/>
        </lane>
    </edge>
    <edge id=":334_2" function="internal">
        <lane id=":334_2_0" index="0" disallow="pedestrian tram rail_urban rail rail_electric rail_fast ship" speed="11.77" length="16.00" width="3.50" shape="307.43,473.43 298.88,472.38 292.72,468.75 292.60,468.55">
            <param key="origId" value="352_-1"/>
        </lane>
    </edge>
    <edge id=":334_8" function="internal">
        <lane id=":334_8_0" index="0" disallow="pedestrian tram rail_urban rail rail_electric rail_fast ship" speed="11.77" length="15.95" width="3.50" shape="292.60,468.55 288.94,462.54 287.54,453.74">
            <param key="origId" value="352_-1"/>
        </lane>
    </edge>
    <edge id=":334_3" function="internal">
        <lane id=":334_3_0" index="0" disallow="pedestrian tram rail_urban rail rail_electric rail_fast ship" speed="8.21" length="14.96" width="3.50" shape="298.04,453.53 298.68,457.73 300.42,460.69 303.25,462.43 307.17,462.93">
            <param key="origId" value="356_-1"/>
        </lane>
    </edge>
    <edge id=":334_4" function="internal">
        <lane id=":334_4_0" index="0" disallow="pedestrian tram rail_urban rail rail_electric rail_fast ship" speed="11.89" length="32.38" width="3.50" shape="294.54,453.60 293.47,462.45 289.86,468.84 283.70,472.77 275.00,474.25">
            <param key="origId" value="357_1"/>
        </lane>
    </edge>
    <edge id=":334_5" function="internal">
        <lane id=":334_5_0" index="0" disallow="pedestrian tram rail_urban rail rail_electric rail_fast ship" speed="8.38" length="15.51" width="3.50" shape="274.74,463.75 278.88,463.04 281.81,461.15 283.53,458.07 284.04,453.81">
            <param key="origId" value="361_-1"/>
        </lane>
    </edge>
    <edge id=":334_6" function="internal">
        <lane id=":334_6_0" index="0" disallow="pedestrian tram rail_urban rail rail_electric rail_fast ship" speed="13.89" length="32.44" width="3.50" shape="274.74,463.75 307.17,462.93">
            <param key="origId" value="338_3"/>
        </lane>
        <lane id=":334_6_1" index="1" disallow="pedestrian tram rail_urban rail rail_electric rail_fast ship" speed="13.89" length="32.44" width="3.50" shape="274.83,467.25 307.26,466.43">
            <param key="origId" value="338_2"/>
        </lane>
    </edge>
    <edge id=":363_0" function="internal">
        <lane id=":363_0_0" index="0" disallow="pedestrian tram rail_urban rail rail_electric rail_fast ship" speed="8.23" length="14.87" width="3.50" shape="198.48,419.67 197.83,415.28,0.04 196.17,412.17,0.08 193.52,410.34,0.11 189.87,409.79,0.15">
            <param key="origId" value="389_-2"/>