<?xml version="1.0" encoding="UTF-8"?>

<!-- generated on Thu Sep  2 10:33:09 2021 by Eclipse SUMO GUI Version 1.9.0
-->

<configuration xmlns:xsi="http://www.w3.org/2001/XMLSchema-instance" xsi:noNamespaceSchemaLocation="http://sumo.dlr.de/xsd/sumoConfiguration.xsd">

    <input>
        <net-file value="Town03.net.xml"/>
        <route-files value="Town03ICRA_1.rou.xml"/>
    </input>

</configuration>
