<?xml version="1.0" encoding="UTF-8"?>

<!-- generated on 2022-04-27 17:08:01 by Eclipse SUMO netedit Version 1.12.0
<configuration xmlns:xsi="http://www.w3.org/2001/XMLSchema-instance" xsi:noNamespaceSchemaLocation="http://sumo.dlr.de/xsd/netconvertConfiguration.xsd">

    <input>
        <sumo-net-file value="C:\Users\seegras\Git\driver-dojo\data\scenarios\HyperOpt\Intersection\map.net.xml"/>
    </input>

    <output>
        <output-file value="C:\Users\seegras\Git\driver-dojo\data\scenarios\HyperOpt\Intersection\map.net.xml"/>
    </output>

    <processing>
        <geometry.min-radius.fix.railways value="false"/>
        <geometry.max-grade.fix value="false"/>
        <offset.disable-normalization value="true"/>
        <lefthand value="false"/>
    </processing>

    <junctions>
        <no-turnarounds value="true"/>
        <junctions.corner-detail value="5"/>
        <junctions.limit-turn-speed value="5.5"/>
        <rectangular-lane-cut value="false"/>
    </junctions>

    <pedestrian>
        <walkingareas value="false"/>
    </pedestrian>

    <report>
        <aggregate-warnings value="5"/>
    </report>

</configuration>
-->

<net version="1.9" junctionCornerDetail="5" limitTurnSpeed="5.50" xmlns:xsi="http://www.w3.org/2001/XMLSchema-instance" xsi:noNamespaceSchemaLocation="http://sumo.dlr.de/xsd/net_file.xsd">

    <location netOffset="0.00,0.00" convBoundary="-1.61,-118.33,182.82,71.70" origBoundary="-10000000000.00,-10000000000.00,10000000000.00,10000000000.00" projParameter="!"/>

    <edge id=":J3_0" function="internal">
        <lane id=":J3_0_0" index="0" speed="13.89" length="23.26" shape="110.13,2.34 104.13,4.47 99.87,7.28 96.17,11.01 91.86,15.92"/>
    </edge>
    <edge id=":J3_1" function="internal">
        <lane id=":J3_1_0" index="0" speed="13.89" length="27.77" shape="110.13,2.34 103.14,3.67 96.44,4.11 89.68,3.92 82.53,3.39"/>
    </edge>
    <edge id=":J3_2" function="internal">
        <lane id=":J3_2_0" index="0" speed="11.74" length="12.31" shape="110.13,2.34 103.93,2.73 98.38,0.54 98.29,0.45"/>
    </edge>
    <edge id=":J3_3" function="internal">
        <lane id=":J3_3_0" index="0" speed="13.89" length="4.40" shape="109.33,-0.76 105.20,0.75"/>
    </edge>
    <edge id=":J3_4" function="internal">
        <lane id=":J3_4_0" index="0" speed="13.89" length="26.71" shape="109.33,-0.76 102.50,0.56 96.17,0.96 89.78,0.75 82.79,0.20"/>
    </edge>
    <edge id=":J3_5" function="internal">
        <lane id=":J3_5_0" index="0" speed="10.78" length="4.82" shape="109.33,-0.76 104.52,-0.52"/>
    </edge>
    <edge id=":J3_24" function="internal">
        <lane id=":J3_24_0" index="0" speed="11.74" length="15.22" shape="98.29,0.45 93.48,-4.24 89.23,-11.61"/>
    </edge>
    <edge id=":J3_25" function="internal">
        <lane id=":J3_25_0" index="0" speed="13.89" length="20.61" shape="105.20,0.75 103.09,1.52 98.31,4.64 94.08,8.68 89.52,13.73"/>
    </edge>
    <edge id=":J3_26" function="internal">
        <lane id=":J3_26_0" index="0" speed="10.78" length="18.27" shape="104.52,-0.52 104.34,-0.51 99.81,-2.47 95.73,-6.63 92.11,-13.00"/>
    </edge>
    <edge id=":J3_6" function="internal">
        <lane id=":J3_6_0" index="0" speed="8.59" length="14.30" shape="97.80,-15.74 100.16,-11.39 102.60,-8.47 105.13,-6.99 107.73,-6.95"/>
    </edge>
    <edge id=":J3_7" function="internal">
        <lane id=":J3_7_0" index="0" speed="13.89" length="34.27" shape="97.80,-15.74 100.28,-7.54 100.11,0.48 97.31,8.30 91.86,15.92"/>
    </edge>
    <edge id=":J3_8" function="internal">
        <lane id=":J3_8_0" index="0" speed="9.94" length="31.21" shape="97.80,-15.74 99.70,-7.38 97.37,-1.12 91.43,2.61 82.53,3.39"/>
    </edge>
    <edge id=":J3_9" function="internal">
        <lane id=":J3_9_0" index="0" speed="9.76" length="18.70" shape="94.91,-14.35 97.92,-9.00 101.19,-5.46 104.73,-3.75 108.53,-3.86"/>
    </edge>
    <edge id=":J3_10" function="internal">
        <lane id=":J3_10_0" index="0" speed="13.80" length="30.42" shape="94.91,-14.35 97.09,-7.11 96.92,-0.01 94.39,6.94 89.52,13.73"/>
    </edge>
    <edge id=":J3_11" function="internal">
        <lane id=":J3_11_0" index="0" speed="9.05" length="25.62" shape="94.91,-14.35 96.93,-7.39 95.58,-2.64 90.86,-0.11 82.79,0.20"/>
    </edge>
    <edge id=":J3_12" function="internal">
        <lane id=":J3_12_0" index="0" speed="6.07" length="10.70" shape="83.31,-6.18 86.94,-6.25 89.14,-7.18 89.91,-8.97 89.23,-11.61"/>
    </edge>
    <edge id=":J3_13" function="internal">
        <lane id=":J3_13_0" index="0" speed="13.89" length="24.60" shape="83.31,-6.18 89.97,-5.60 95.63,-5.32 101.23,-5.66 107.73,-6.95"/>
    </edge>
    <edge id=":J3_14" function="internal">
        <lane id=":J3_14_0" index="0" speed="9.53" length="10.98" shape="83.31,-6.18 91.42,-3.65 93.01,-1.74"/>
    </edge>
    <edge id=":J3_15" function="internal">
        <lane id=":J3_15_0" index="0" speed="7.71" length="5.74" shape="83.05,-2.99 88.78,-3.18"/>
    </edge>
    <edge id=":J3_16" function="internal">
        <lane id=":J3_16_0" index="0" speed="13.89" length="25.65" shape="83.05,-2.99 89.87,-2.43 95.90,-2.18 101.87,-2.55 108.53,-3.86"/>
    </edge>
    <edge id=":J3_17" function="internal">
        <lane id=":J3_17_0" index="0" speed="8.35" length="3.25" shape="83.05,-2.99 86.15,-2.02"/>
    </edge>
    <edge id=":J3_27" function="internal">
        <lane id=":J3_27_0" index="0" speed="9.53" length="19.80" shape="93.01,-1.74 95.80,1.60 96.08,8.49 91.86,15.92"/>
    </edge>
    <edge id=":J3_28" function="internal">
        <lane id=":J3_28_0" index="0" speed="7.71" length="12.44" shape="88.78,-3.18 88.91,-3.18 92.38,-4.91 93.45,-8.19 92.11,-13.00"/>
    </edge>
    <edge id=":J3_29" function="internal">
        <lane id=":J3_29_0" index="0" speed="8.35" length="20.04" shape="86.15,-2.02 89.18,-1.07 92.51,2.90 92.72,8.11 89.52,13.73"/>
    </edge>
    <edge id=":J3_18" function="internal">
        <lane id=":J3_18_0" index="0" speed="5.56" length="9.43" shape="84.88,9.38 86.54,6.98 86.71,5.18 85.37,3.99 82.53,3.39"/>
    </edge>
    <edge id=":J3_19" function="internal">
        <lane id=":J3_19_0" index="0" speed="12.02" length="22.77" shape="84.88,9.38 88.60,4.21 90.57,-1.01 90.78,-6.28 89.23,-11.61"/>
    </edge>
    <edge id=":J3_20" function="internal">
        <lane id=":J3_20_0" index="0" speed="13.89" length="28.52" shape="84.88,9.38 89.90,4.04 95.18,-0.64 101.02,-4.40 107.73,-6.95"/>
    </edge>
    <edge id=":J3_21" function="internal">
        <lane id=":J3_21_0" index="0" speed="7.39" length="17.87" shape="87.21,11.57 90.38,7.01 90.70,3.60 88.16,1.33 82.79,0.20"/>
    </edge>
    <edge id=":J3_22" function="internal">
        <lane id=":J3_22_0" index="0" speed="12.97" length="26.62" shape="87.21,11.57 91.51,5.57 93.76,-0.52 93.96,-6.71 92.11,-13.00"/>
    </edge>
    <edge id=":J3_23" function="internal">
        <lane id=":J3_23_0" index="0" speed="13.89" length="26.76" shape="87.21,11.57 92.00,6.37 96.74,2.00 102.06,-1.44 108.53,-3.86"/>
    </edge>
    <edge id=":J6_0" function="internal">
        <lane id=":J6_0_0" index="0" speed="4.03" length="1.27" shape="75.97,-89.68 75.74,-89.44 75.57,-89.17 75.47,-88.88 75.44,-88.57"/>
        <lane id=":J6_0_1" index="1" speed="6.32" length="3.81" shape="73.83,-92.06 73.14,-91.33 72.64,-90.53 72.34,-89.67 72.24,-88.73"/>
    </edge>
    <edge id=":J6_2" function="internal">
        <lane id=":J6_2_0" index="0" speed="9.25" length="8.87" shape="65.89,-89.05 66.11,-91.24 66.79,-93.26 67.95,-95.12 69.57,-96.82"/>
        <lane id=":J6_2_1" index="1" speed="7.89" length="6.33" shape="69.09,-88.89 69.24,-90.46 69.73,-91.90 70.55,-93.23 71.71,-94.44"/>
    </edge>

    <edge id="-E0" from="J3" to="J2" priority="-1" shape="100.00,0.00 97.92,2.22 95.88,4.40 93.89,6.56 91.93,8.70 90.01,10.80 88.14,12.88 86.31,14.93 84.51,16.96 82.76,18.95 81.05,20.92 79.38,22.87 77.76,24.78 76.17,26.67 74.62,28.53 73.12,30.37 71.65,32.17 70.23,33.95 68.85,35.70 67.50,37.43 66.20,39.13 64.94,40.80 63.73,42.44 62.55,44.06 61.41,45.64 60.31,47.21 59.26,48.74 58.25,50.25 57.27,51.73 56.34,53.18 55.45,54.60 54.60,56.00 53.79,57.37 53.02,58.72 52.30,60.03 51.61,61.32 50.97,62.58 50.36,63.82 49.80,65.03 49.28,66.21 48.80,67.36 48.35,68.49 47.96,69.58 47.60,70.66 47.28,71.70">
        <lane id="-E0_0" index="0" speed="13.89" length="70.94" shape="91.86,15.92 91.72,16.08 89.90,18.12 88.11,20.14 86.37,22.11 84.69,24.05 83.03,25.98 81.43,27.88 79.85,29.75 78.32,31.58 76.84,33.40 75.38,35.19 73.99,36.93 72.63,38.66 71.30,40.36 70.02,42.03 68.79,43.67 67.60,45.28 66.44,46.88 65.32,48.42 64.25,49.95 63.23,51.43 62.25,52.91 61.29,54.35 60.39,55.75 59.53,57.12 58.72,58.47 57.94,59.78 57.21,61.07 56.52,62.32 55.87,63.54 55.26,64.73 54.69,65.89 54.17,67.01 53.69,68.10 53.24,69.17 52.84,70.19 52.50,71.15 52.17,72.13 51.87,73.11"/>
        <lane id="-E0_1" index="1" speed="13.89" length="70.94" shape="89.52,13.73 89.33,13.95 87.51,15.99 85.71,18.02 83.96,20.00 82.26,21.96 80.60,23.91 78.98,25.81 77.40,27.70 75.85,29.55 74.36,31.38 72.89,33.18 71.48,34.94 70.11,36.69 68.77,38.41 67.47,40.10 66.22,41.76 65.02,43.39 63.85,45.00 62.71,46.57 61.62,48.12 60.58,49.64 59.58,51.14 58.61,52.60 57.69,54.04 56.81,55.44 55.97,56.82 55.17,58.17 54.42,59.50 53.71,60.79 53.03,62.06 52.40,63.30 51.80,64.51 51.26,65.69 50.75,66.84 50.28,67.96 49.85,69.06 49.47,70.10 49.12,71.15 48.81,72.17"/>
    </edge>
    <edge id="-E1" from="J3" to="J4" priority="-1">
        <lane id="-E1_0" index="0" speed="13.89" length="84.81" shape="82.53,3.39 -2.00,-3.50"/>
        <lane id="-E1_1" index="1" speed="13.89" length="84.81" shape="82.79,0.20 -1.74,-6.69"/>
    </edge>
    <edge id="-E2" from="J3" to="J5" priority="-1">
        <lane id="-E2_0" index="0" speed="13.89" length="76.31" shape="107.73,-6.95 181.62,-26.03"/>
        <lane id="-E2_1" index="1" speed="13.89" length="76.31" shape="108.53,-3.86 182.42,-22.93"/>
    </edge>
    <edge id="-E3" from="J6" to="J3" priority="-1" shape="70.74,-91.44 70.68,-90.25 70.64,-89.03 70.64,-87.78 70.66,-86.50 70.71,-85.18 70.79,-83.84 70.90,-82.47 71.04,-81.07 71.20,-79.63 71.40,-78.17 71.62,-76.67 71.87,-75.15 72.15,-73.59 72.46,-72.01 72.80,-70.39 73.16,-68.75 73.56,-67.07 73.98,-65.36 74.43,-63.62 74.92,-61.86 75.43,-60.06 75.96,-58.23 76.53,-56.37 77.12,-54.48 77.75,-52.56 78.40,-50.61 79.08,-48.63 79.79,-46.62 80.53,-44.57 81.30,-42.50 82.09,-40.40 82.92,-38.27 83.77,-36.10 84.65,-33.91 85.56,-31.68 86.50,-29.43 87.47,-27.14 88.46,-24.83 89.49,-22.48 90.54,-20.11 91.62,-17.70 92.74,-15.26 93.87,-12.79 95.04,-10.30 96.24,-7.77 97.46,-5.21 98.72,-2.62 100.00,0.00">
        <lane id="-E3_0" index="0" speed="13.89" length="77.48" shape="75.44,-88.57 75.44,-87.82 75.46,-86.63 75.50,-85.41 75.58,-84.18 75.68,-82.90 75.81,-81.57 75.96,-80.22 76.15,-78.84 76.36,-77.41 76.60,-75.96 76.87,-74.48 77.16,-72.97 77.49,-71.40 77.84,-69.82 78.23,-68.20 78.63,-66.53 79.07,-64.87 79.54,-63.16 80.04,-61.38 80.56,-59.60 81.12,-57.79 81.69,-55.94 82.31,-54.07 82.95,-52.15 83.61,-50.21 84.31,-48.23 85.04,-46.22 85.80,-44.18 86.57,-42.12 87.39,-40.02 88.23,-37.87 89.10,-35.71 90.00,-33.51 90.92,-31.29 91.89,-29.02 92.86,-26.74 93.88,-24.42 94.92,-22.06 95.99,-19.68 97.10,-17.26 97.80,-15.74"/>
        <lane id="-E3_1" index="1" speed="13.89" length="77.48" shape="72.24,-88.73 72.24,-87.79 72.26,-86.54 72.31,-85.26 72.39,-83.95 72.49,-82.61 72.63,-81.24 72.79,-79.83 72.98,-78.39 73.20,-76.92 73.45,-75.42 73.72,-73.89 74.03,-72.33 74.36,-70.73 74.72,-69.11 75.12,-67.45 75.53,-65.75 75.98,-64.04 76.46,-62.29 76.97,-60.50 77.49,-58.69 78.06,-56.84 78.64,-54.97 79.27,-53.06 79.92,-51.12 80.59,-49.16 81.30,-47.16 82.03,-45.12 82.80,-43.06 83.58,-40.97 84.41,-38.85 85.26,-36.69 86.13,-34.51 87.04,-32.29 87.97,-30.05 88.94,-27.77 89.93,-25.47 90.95,-23.13 92.00,-20.76 93.08,-18.36 94.19,-15.93 94.91,-14.35"/>
    </edge>
    <edge id="-E4" from="J0" to="J6" priority="-1" shape="137.60,-118.33 135.24,-118.07 132.91,-117.78 130.61,-117.47 128.34,-117.12 126.10,-116.75 123.88,-116.35 121.70,-115.93 119.54,-115.47 117.41,-114.99 115.31,-114.48 113.24,-113.94 111.19,-113.37 109.18,-112.78 107.19,-112.16 105.24,-111.51 103.31,-110.83 101.41,-110.13 99.53,-109.39 97.69,-108.63 95.88,-107.84 94.09,-107.03 92.33,-106.18 90.61,-105.31 88.91,-104.41 87.24,-103.48 85.59,-102.53 83.98,-101.54 82.39,-100.53 80.84,-99.49 79.31,-98.43 77.81,-97.33 76.34,-96.21 74.90,-95.06 73.48,-93.88 72.10,-92.67 70.74,-91.44">
        <lane id="-E4_0" index="0" speed="13.89" length="68.64" shape="138.13,-113.56 135.80,-113.30 133.53,-113.02 131.30,-112.72 129.10,-112.38 126.92,-112.02 124.76,-111.63 122.65,-111.23 120.57,-110.78 118.50,-110.32 116.48,-109.83 114.49,-109.31 112.51,-108.75 110.57,-108.19 108.66,-107.59 106.80,-106.97 104.94,-106.31 103.12,-105.64 101.33,-104.94 99.57,-104.21 97.83,-103.45 96.12,-102.68 94.46,-101.88 92.82,-101.05 91.20,-100.19 89.61,-99.30 88.04,-98.41 86.52,-97.47 85.01,-96.51 83.54,-95.52 82.10,-94.52 80.68,-93.49 79.29,-92.43 77.93,-91.34 76.60,-90.23 75.97,-89.68"/>
        <lane id="-E4_1" index="1" speed="13.89" length="68.64" shape="137.78,-116.74 135.43,-116.48 133.12,-116.19 130.84,-115.89 128.59,-115.54 126.37,-115.17 124.17,-114.78 122.02,-114.36 119.88,-113.91 117.77,-113.43 115.70,-112.93 113.66,-112.40 111.63,-111.83 109.64,-111.25 107.68,-110.64 105.76,-110.00 103.85,-109.32 101.98,-108.63 100.13,-107.91 98.32,-107.16 96.53,-106.38 94.77,-105.58 93.04,-104.75 91.35,-103.89 89.67,-103.00 88.03,-102.09 86.41,-101.16 84.83,-100.18 83.26,-99.19 81.74,-98.17 80.24,-97.13 78.77,-96.05 77.32,-94.95 75.91,-93.82 74.52,-92.66 73.83,-92.06"/>
    </edge>
    <edge id="E0" from="J2" to="J3" priority="-1" shape="47.28,71.70 47.60,70.66 47.96,69.59 48.37,68.50 48.81,67.38 49.29,66.23 49.82,65.05 50.39,63.85 50.99,62.61 51.64,61.36 52.33,60.07 53.06,58.76 53.83,57.41 54.64,56.04 55.49,54.65 56.38,53.22 57.32,51.77 58.29,50.29 59.30,48.79 60.36,47.26 61.46,45.69 62.59,44.11 63.77,42.49 64.99,40.85 66.25,39.18 67.55,37.48 68.89,35.75 70.27,34.00 71.69,32.22 73.16,30.41 74.66,28.58 76.21,26.71 77.79,24.82 79.42,22.91 81.08,20.96 82.79,18.99 84.54,16.99 86.33,14.96 88.16,12.91 90.03,10.82 91.94,8.71 93.90,6.58 95.89,4.41 97.92,2.22 100.00,0.00">
        <lane id="E0_0" index="0" speed="13.89" length="73.83" shape="42.69,70.29 43.03,69.19 43.44,67.98 43.89,66.78 44.36,65.58 44.89,64.32 45.46,63.04 46.06,61.77 46.70,60.46 47.39,59.12 48.12,57.77 48.88,56.40 49.68,55.00 50.53,53.57 51.41,52.13 52.33,50.65 53.30,49.15 54.29,47.63 55.34,46.08 56.42,44.52 57.54,42.92 58.70,41.30 59.90,39.64 61.15,37.97 62.43,36.28 63.75,34.55 65.11,32.79 66.51,31.02 67.95,29.21 69.44,27.38 70.96,25.53 72.52,23.64 74.12,21.72 75.77,19.80 77.44,17.83 79.17,15.84 80.93,13.82 82.74,11.77 84.58,9.71 84.88,9.38"/>
        <lane id="E0_1" index="1" speed="13.89" length="73.83" shape="45.75,71.23 46.08,70.17 46.45,69.05 46.88,67.93 47.33,66.78 47.82,65.59 48.37,64.38 48.95,63.16 49.56,61.89 50.22,60.61 50.93,59.30 51.67,57.97 52.45,56.61 53.27,55.22 54.13,53.81 55.03,52.36 55.98,50.90 56.96,49.40 57.98,47.89 59.05,46.35 60.15,44.77 61.29,43.17 62.48,41.54 63.71,39.89 64.98,38.21 66.28,36.50 67.63,34.76 69.02,33.01 70.44,31.22 71.92,29.40 73.43,27.56 74.98,25.69 76.57,23.79 78.20,21.87 79.87,19.92 81.58,17.94 83.34,15.93 85.13,13.90 86.97,11.84 87.21,11.57"/>
    </edge>
    <edge id="E1" from="J4" to="J3" priority="2">
        <lane id="E1_0" index="0" speed="13.89" length="84.81" shape="-1.22,-13.06 83.31,-6.18"/>
        <lane id="E1_1" index="1" speed="13.89" length="84.81" shape="-1.48,-9.87 83.05,-2.99"/>
    </edge>
    <edge id="E2" from="J5" to="J3" priority="2">
        <lane id="E2_0" index="0" speed="13.89" length="76.31" shape="184.02,-16.73 110.13,2.34"/>
        <lane id="E2_1" index="1" speed="13.89" length="76.31" shape="183.22,-19.83 109.33,-0.76"/>
    </edge>
    <edge id="E3" from="J3" to="J6" priority="-1" shape="100.00,0.00 98.74,-2.61 97.51,-5.20 96.30,-7.75 95.13,-10.27 93.98,-12.76 92.86,-15.23 91.76,-17.66 90.70,-20.06 89.66,-22.43 88.65,-24.77 87.67,-27.08 86.71,-29.37 85.78,-31.62 84.88,-33.84 84.01,-36.03 83.17,-38.19 82.35,-40.32 81.56,-42.42 80.80,-44.49 80.06,-46.53 79.36,-48.54 78.68,-50.52 78.03,-52.47 77.41,-54.39 76.81,-56.28 76.24,-58.14 75.70,-59.97 75.19,-61.77 74.70,-63.54 74.25,-65.28 73.82,-66.99 73.41,-68.67 73.04,-70.32 72.69,-71.94 72.37,-73.53 72.08,-75.09 71.82,-76.61 71.58,-78.11 71.37,-79.58 71.19,-81.02 71.04,-82.43 70.91,-83.81 70.81,-85.15 70.74,-86.47 70.70,-87.76 70.69,-89.02 70.70,-90.24 70.74,-91.44">
        <lane id="E3_0" index="0" speed="13.89" length="80.60" shape="89.23,-11.61 88.49,-13.25 87.38,-15.70 86.31,-18.13 85.26,-20.51 84.24,-22.88 83.25,-25.21 82.28,-27.53 81.34,-29.80 80.43,-32.05 79.54,-34.27 78.69,-36.46 77.86,-38.61 77.06,-40.75 76.29,-42.84 75.54,-44.92 74.82,-46.97 74.13,-48.98 73.47,-50.97 72.84,-52.93 72.23,-54.85 71.64,-56.76 71.09,-58.64 70.57,-60.48 70.06,-62.30 69.60,-64.09 69.16,-65.84 68.74,-67.58 68.35,-69.29 67.99,-70.96 67.66,-72.62 67.35,-74.25 67.08,-75.83 66.83,-77.39 66.61,-78.94 66.42,-80.47 66.26,-81.95 66.13,-83.41 66.02,-84.84 65.94,-86.27 65.90,-87.67 65.89,-89.05"/>
        <lane id="E3_1" index="1" speed="13.89" length="80.60" shape="92.11,-13.00 91.40,-14.57 90.30,-17.01 89.24,-19.42 88.19,-21.79 87.18,-24.14 86.20,-26.46 85.23,-28.76 84.30,-31.01 83.40,-33.24 82.52,-35.44 81.68,-37.61 80.85,-39.75 80.06,-41.86 79.30,-43.94 78.55,-45.99 77.85,-48.02 77.16,-50.01 76.51,-51.97 75.89,-53.90 75.28,-55.80 74.71,-57.68 74.16,-59.53 73.65,-61.34 73.15,-63.13 72.70,-64.88 72.27,-66.61 71.85,-68.31 71.48,-69.98 71.12,-71.61 70.80,-73.23 70.50,-74.81 70.24,-76.35 70.00,-77.87 69.78,-79.37 69.60,-80.84 69.45,-82.27 69.32,-83.68 69.21,-85.05 69.14,-86.40 69.10,-87.73 69.09,-88.89"/>
    </edge>
    <edge id="E4" from="J6" to="J0" priority="-1" shape="70.74,-91.44 72.10,-92.66 73.48,-93.86 74.90,-95.03 76.34,-96.17 77.82,-97.29 79.32,-98.38 80.85,-99.44 82.40,-100.47 83.99,-101.48 85.60,-102.45 87.25,-103.41 88.92,-104.33 90.62,-105.23 92.35,-106.10 94.11,-106.94 95.89,-107.75 97.71,-108.54 99.55,-109.30 101.42,-110.04 103.32,-110.74 105.25,-111.42 107.21,-112.07 109.19,-112.70 111.21,-113.29 113.25,-113.86 115.32,-114.41 117.42,-114.92 119.55,-115.41 121.70,-115.87 123.89,-116.30 126.10,-116.71 128.35,-117.09 130.62,-117.44 132.92,-117.76 135.24,-118.06 137.60,-118.33">
        <lane id="E4_0" index="0" speed="13.89" length="72.57" shape="69.57,-96.82 70.38,-97.52 71.88,-98.76 73.40,-99.97 74.96,-101.15 76.54,-102.29 78.15,-103.41 79.78,-104.50 81.46,-105.56 83.15,-106.58 84.88,-107.59 86.64,-108.55 88.42,-109.50 90.24,-110.41 92.08,-111.29 93.94,-112.14 95.84,-112.96 97.75,-113.75 99.71,-114.52 101.69,-115.26 103.70,-115.96 105.73,-116.64 107.79,-117.29 109.89,-117.91 111.99,-118.49 114.14,-119.06 116.32,-119.59 118.51,-120.10 120.74,-120.57 122.99,-121.01 125.26,-121.44 127.58,-121.83 129.92,-122.19 132.28,-122.52 134.66,-122.82 137.05,-123.10"/>
        <lane id="E4_1" index="1" speed="13.89" length="72.57" shape="71.71,-94.44 72.45,-95.08 73.89,-96.27 75.36,-97.44 76.87,-98.58 78.39,-99.68 79.95,-100.76 81.53,-101.81 83.15,-102.84 84.78,-103.83 86.46,-104.80 88.16,-105.74 89.89,-106.65 91.65,-107.54 93.43,-108.39 95.24,-109.21 97.09,-110.01 98.95,-110.78 100.85,-111.53 102.78,-112.25 104.73,-112.93 106.72,-113.59 108.72,-114.23 110.77,-114.83 112.83,-115.40 114.93,-115.96 117.05,-116.48 119.20,-116.97 121.38,-117.44 123.59,-117.87 125.82,-118.29 128.09,-118.67 130.39,-119.02 132.71,-119.35 135.05,-119.65 137.42,-119.92"/>
    </edge>

    <junction id="J0" type="dead_end" x="137.60" y="-118.33" incLanes="E4_0 E4_1" intLanes="" shape="137.60,-118.33 138.30,-111.97 136.87,-124.69"/>
    <junction id="J2" type="dead_end" x="47.28" y="71.70" incLanes="-E0_0 -E0_1" intLanes="" shape="47.28,71.70 41.16,69.82 53.40,73.58"/>
    <junction id="J3" type="priority" x="100.00" y="0.00" incLanes="E2_0 E2_1 -E3_0 -E3_1 E1_0 E1_1 E0_0 E0_1" intLanes=":J3_0_0 :J3_1_0 :J3_24_0 :J3_25_0 :J3_4_0 :J3_26_0 :J3_6_0 :J3_7_0 :J3_8_0 :J3_9_0 :J3_10_0 :J3_11_0 :J3_12_0 :J3_13_0 :J3_27_0 :J3_28_0 :J3_16_0 :J3_29_0 :J3_18_0 :J3_19_0 :J3_20_0 :J3_21_0 :J3_22_0 :J3_23_0" shape="110.53,3.89 107.33,-8.50 104.66,-8.93 103.31,-9.97 101.96,-11.57 100.60,-13.73 99.24,-16.44 87.79,-10.91 88.04,-8.95 87.53,-8.31 86.59,-7.90 85.22,-7.72 83.44,-7.77 82.40,4.99 84.31,5.50 84.71,5.97 84.75,6.60 84.41,7.37 83.71,8.29 93.03,17.02 96.13,13.41 98.46,10.61 100.55,8.43 102.91,6.70 106.07,5.25">
        <request index="0"  response="000000000000000000000000" foes="000000100100010010000000" cont="0"/>
        <request index="1"  response="000000000000000000000000" foes="111111100100110110001000" cont="0"/>
        <request index="2"  response="000000011011000000011000" foes="110110011111110110011000" cont="1"/>
        <request index="3"  response="000000000000000000000110" foes="000000100100010010000110" cont="1"/>
        <request index="4"  response="000000000000000000000000" foes="111111100100110110000100" cont="0"/>
        <request index="5"  response="000000011011000000000000" foes="110110011011110110000000" cont="1"/>
        <request index="6"  response="100100010010000000000000" foes="100100010010000000000000" cont="0"/>
        <request index="7"  response="100100110110000000111111" foes="100100110110001000111111" cont="0"/>
        <request index="8"  response="011011110110010000110110" foes="011011110110011000110110" cont="0"/>
        <request index="9"  response="100100010010000110000000" foes="100100010010000110000000" cont="0"/>
        <request index="10" response="100100110110000000111111" foes="100100110110000100111111" cont="0"/>
        <request index="11" response="011011110110000000110110" foes="011011110110000000110110" cont="0"/>
        <request index="12" response="000000000000000000000000" foes="010010000000000000100100" cont="0"/>
        <request index="13" response="000000000000000000000000" foes="110110001000111111100100" cont="0"/>
        <request index="14" response="000000010000000000011111" foes="110110011000110110011111" cont="1"/>
        <request index="15" response="000000000110000000000000" foes="010010000110000000100100" cont="1"/>
        <request index="16" response="000000000000000000000000" foes="110110000100111111100100" cont="0"/>
        <request index="17" response="000000000000000000011011" foes="110110000000110110011011" cont="1"/>
        <request index="18" response="000000000000000000010010" foes="000000000000100100010010" cont="0"/>
        <request index="19" response="000000111111000000110110" foes="001000111111100100110110" cont="0"/>
        <request index="20" response="000000110110000000110110" foes="011000110110011011110110" cont="0"/>
        <request index="21" response="000110000000000000010010" foes="000110000000100100010010" cont="0"/>
        <request index="22" response="000100111111000000110110" foes="000100111111100100110110" cont="0"/>
        <request index="23" response="000000110110000000110110" foes="000000110110011011110110" cont="0"/>
    </junction>
    <junction id="J4" type="dead_end" x="-1.61" y="-8.28" incLanes="-E1_0 -E1_1" intLanes="" shape="-1.61,-8.28 -2.13,-1.90 -1.61,-8.28"/>
    <junction id="J5" type="dead_end" x="182.82" y="-21.38" incLanes="-E2_0 -E2_1" intLanes="" shape="182.82,-21.38 181.22,-27.58 182.82,-21.38"/>
    <junction id="J6" type="priority" x="70.74" y="-91.44" incLanes="-E4_0 -E4_1 E3_0 E3_1" intLanes=":J6_0_0 :J6_0_1 :J6_2_0 :J6_2_1" shape="77.04,-88.49 68.50,-98.01 66.18,-95.42 65.37,-93.98 64.78,-92.46 64.42,-90.84 64.29,-89.14">
        <request index="0" response="0000" foes="0000" cont="0"/>
        <request index="1" response="0000" foes="0000" cont="0"/>
        <request index="2" response="0000" foes="0000" cont="0"/>
        <request index="3" response="0000" foes="0000" cont="0"/>
    </junction>

    <junction id=":J3_24_0" type="internal" x="98.29" y="0.45" incLanes=":J3_2_0 E1_0 E1_1" intLanes=":J3_3_0 :J3_4_0 :J3_7_0 :J3_8_0 :J3_10_0 :J3_11_0 :J3_12_0 :J3_13_0 :J3_15_0 :J3_16_0 :J3_19_0 :J3_20_0 :J3_22_0 :J3_23_0"/>
    <junction id=":J3_25_0" type="internal" x="105.20" y="0.75" incLanes=":J3_3_0 E2_0" intLanes=":J3_1_0 :J3_2_0 :J3_7_0 :J3_10_0 :J3_14_0 :J3_17_0"/>
    <junction id=":J3_26_0" type="internal" x="104.52" y="-0.52" incLanes=":J3_5_0 E1_0 E1_1" intLanes=":J3_7_0 :J3_8_0 :J3_10_0 :J3_11_0 :J3_12_0 :J3_13_0 :J3_15_0 :J3_16_0 :J3_19_0 :J3_20_0 :J3_22_0 :J3_23_0"/>
    <junction id=":J3_27_0" type="internal" x="93.01" y="-1.74" incLanes=":J3_14_0 E2_0 E2_1" intLanes=":J3_0_0 :J3_1_0 :J3_3_0 :J3_4_0 :J3_7_0 :J3_8_0 :J3_10_0 :J3_11_0 :J3_16_0 :J3_19_0 :J3_20_0 :J3_22_0 :J3_23_0"/>
    <junction id=":J3_28_0" type="internal" x="88.78" y="-3.18" incLanes=":J3_15_0 E1_0" intLanes=":J3_2_0 :J3_5_0 :J3_13_0 :J3_14_0 :J3_19_0 :J3_22_0"/>
    <junction id=":J3_29_0" type="internal" x="86.15" y="-2.02" incLanes=":J3_17_0 E2_0 E2_1" intLanes=":J3_0_0 :J3_1_0 :J3_3_0 :J3_4_0 :J3_7_0 :J3_8_0 :J3_10_0 :J3_11_0 :J3_19_0 :J3_20_0 :J3_22_0 :J3_23_0"/>

    <connection from="-E3" to="-E2" fromLane="0" toLane="0" via=":J3_6_0" dir="r" state="m"/>
    <connection from="-E3" to="-E0" fromLane="0" toLane="0" via=":J3_7_0" dir="L" state="m"/>
    <connection from="-E3" to="-E1" fromLane="0" toLane="0" via=":J3_8_0" dir="l" state="m"/>
    <connection from="-E3" to="-E2" fromLane="1" toLane="1" via=":J3_9_0" dir="r" state="m"/>
    <connection from="-E3" to="-E0" fromLane="1" toLane="1" via=":J3_10_0" dir="L" state="m"/>
    <connection from="-E3" to="-E1" fromLane="1" toLane="1" via=":J3_11_0" dir="l" state="m"/>
    <connection from="-E4" to="-E3" fromLane="0" toLane="0" via=":J6_0_0" dir="r" state="M"/>
    <connection from="-E4" to="-E3" fromLane="1" toLane="1" via=":J6_0_1" dir="r" state="M"/>
    <connection from="E0" to="-E1" fromLane="0" toLane="0" via=":J3_18_0" dir="r" state="m"/>
    <connection from="E0" to="E3" fromLane="0" toLane="0" via=":J3_19_0" dir="R" state="m"/>
    <connection from="E0" to="-E2" fromLane="0" toLane="0" via=":J3_20_0" dir="s" state="m"/>
    <connection from="E0" to="-E1" fromLane="1" toLane="1" via=":J3_21_0" dir="r" state="m"/>
    <connection from="E0" to="E3" fromLane="1" toLane="1" via=":J3_22_0" dir="R" state="m"/>
    <connection from="E0" to="-E2" fromLane="1" toLane="1" via=":J3_23_0" dir="s" state="m"/>
    <connection from="E1" to="E3" fromLane="0" toLane="0" via=":J3_12_0" dir="r" state="M"/>
    <connection from="E1" to="-E2" fromLane="0" toLane="0" via=":J3_13_0" dir="s" state="M"/>
    <connection from="E1" to="-E0" fromLane="0" toLane="0" via=":J3_14_0" dir="l" state="m"/>
    <connection from="E1" to="E3" fromLane="1" toLane="1" via=":J3_15_0" dir="r" state="m"/>
    <connection from="E1" to="-E2" fromLane="1" toLane="1" via=":J3_16_0" dir="s" state="M"/>
    <connection from="E1" to="-E0" fromLane="1" toLane="1" via=":J3_17_0" dir="l" state="m"/>
    <connection from="E2" to="-E0" fromLane="0" toLane="0" via=":J3_0_0" dir="R" state="M"/>
    <connection from="E2" to="-E1" fromLane="0" toLane="0" via=":J3_1_0" dir="s" state="M"/>
    <connection from="E2" to="E3" fromLane="0" toLane="0" via=":J3_2_0" dir="l" state="m"/>
    <connection from="E2" to="-E0" fromLane="1" toLane="1" via=":J3_3_0" dir="R" state="m"/>
    <connection from="E2" to="-E1" fromLane="1" toLane="1" via=":J3_4_0" dir="s" state="M"/>
    <connection from="E2" to="E3" fromLane="1" toLane="1" via=":J3_5_0" dir="l" state="m"/>
    <connection from="E3" to="E4" fromLane="0" toLane="0" via=":J6_2_0" dir="l" state="M"/>
    <connection from="E3" to="E4" fromLane="1" toLane="1" via=":J6_2_1" dir="l" state="M"/>

    <connection from=":J3_0" to="-E0" fromLane="0" toLane="0" dir="R" state="M"/>
    <connection from=":J3_1" to="-E1" fromLane="0" toLane="0" dir="s" state="M"/>
    <connection from=":J3_2" to="E3" fromLane="0" toLane="0" via=":J3_24_0" dir="l" state="m"/>
    <connection from=":J3_24" to="E3" fromLane="0" toLane="0" dir="l" state="M"/>
    <connection from=":J3_3" to="-E0" fromLane="0" toLane="1" via=":J3_25_0" dir="R" state="m"/>
    <connection from=":J3_25" to="-E0" fromLane="0" toLane="1" dir="R" state="M"/>
    <connection from=":J3_4" to="-E1" fromLane="0" toLane="1" dir="s" state="M"/>
    <connection from=":J3_5" to="E3" fromLane="0" toLane="1" via=":J3_26_0" dir="l" state="m"/>
    <connection from=":J3_26" to="E3" fromLane="0" toLane="1" dir="l" state="M"/>
    <connection from=":J3_6" to="-E2" fromLane="0" toLane="0" dir="r" state="M"/>
    <connection from=":J3_7" to="-E0" fromLane="0" toLane="0" dir="L" state="M"/>
    <connection from=":J3_8" to="-E1" fromLane="0" toLane="0" dir="l" state="M"/>
    <connection from=":J3_9" to="-E2" fromLane="0" toLane="1" dir="r" state="M"/>
    <connection from=":J3_10" to="-E0" fromLane="0" toLane="1" dir="L" state="M"/>
    <connection from=":J3_11" to="-E1" fromLane="0" toLane="1" dir="l" state="M"/>
    <connection from=":J3_12" to="E3" fromLane="0" toLane="0" dir="r" state="M"/>
    <connection from=":J3_13" to="-E2" fromLane="0" toLane="0" dir="s" state="M"/>
    <connection from=":J3_14" to="-E0" fromLane="0" toLane="0" via=":J3_27_0" dir="l" state="m"/>
    <connection from=":J3_27" to="-E0" fromLane="0" toLane="0" dir="l" state="M"/>
    <connection from=":J3_15" to="E3" fromLane="0" toLane="1" via=":J3_28_0" dir="r" state="m"/>
    <connection from=":J3_28" to="E3" fromLane="0" toLane="1" dir="r" state="M"/>
    <connection from=":J3_16" to="-E2" fromLane="0" toLane="1" dir="s" state="M"/>
    <connection from=":J3_17" to="-E0" fromLane="0" toLane="1" via=":J3_29_0" dir="l" state="m"/>
    <connection from=":J3_29" to="-E0" fromLane="0" toLane="1" dir="l" state="M"/>
    <connection from=":J3_18" to="-E1" fromLane="0" toLane="0" dir="r" state="M"/>
    <connection from=":J3_19" to="E3" fromLane="0" toLane="0" dir="R" state="M"/>