<?xml version="1.0" encoding="UTF-8"?>

<!-- generated on 2022-04-24 09:25:23 by Eclipse SUMO netedit Version 1.12.0
-->

<routes xmlns:xsi="http://www.w3.org/2001/XMLSchema-instance" xsi:noNamespaceSchemaLocation="http://sumo.dlr.de/xsd/routes_file.xsd">
    <route id="route_ego" edges="E0 E3 E4" color="0,0,0,0"/>
    <vehicle id="ego" depart="0.00" route="route_ego"/>
    <flow id="f_0" begin="0.00" from="E1" to="-E2" end="3600.00" probability="0.10"/>
    <flow id="f_1" begin="0.00" from="-E3" to="-E1" end="3600.00" probability="0.15"/>
    <flow id="f_2" begin="0.00" from="E2" to="-E1" end="3600.00" probability="0.20"/>
    <flow id="f_3" begin="0.00" from="-E3" to="-E0" end="3600.00" probability="0.15"/>
    <flow id="f_4" begin="0.00" from="-E3" to="-E2" end="3600.00" probability="0.20"/>
    <flow id="f_5" begin="0.00" from="E2" to="-E0" end="3600.00" probability="0.15"/>
</routes>
