<?xml version="1.0" encoding="UTF-8"?>

<!-- generated on 2022-04-08 10:57:31 by Eclipse SUMO netedit Version 1.12.0
-->

<routes xmlns:xsi="http://www.w3.org/2001/XMLSchema-instance" xsi:noNamespaceSchemaLocation="http://sumo.dlr.de/xsd/routes_file.xsd">
    <route id="route_ego" edges="E7 E6 E18" color="0,0,0,0"/>
    <vehicle id="ego" depart="0.00" route="route_ego"/>
    <flow id="f_0" begin="0.00" color="red" from="E67" to="E66" via="E1 -E5" end="3600.00" probability="0.25"/>
    <flow id="f_1" begin="0.00" color="red" from="E67" to="-E7" via="E1" end="3600.00" probability="0.25"/>
    <flow id="f_2" begin="0.00" departLane="1" color="red" from="E27" to="-E16" via="-E18" end="3600.00" probability="0.25"/>
    <flow id="f_3" begin="0.00" color="red" from="E27" to="E0" via="-E18" end="3600.00" probability="0.25"/>
    <flow id="f_4" begin="0.00" color="red" from="E16" to="E28" via="E18" end="3600.00" probability="0.25"/>
    <flow id="f_5" begin="0.00" departLane="1" color="red" from="E16" to="E0" end="3600.00" probability="0.50"/>
    <flow id="f_6" begin="0.00" color="red" from="-E0" to="-E7" via="-E6" end="3600.00" probability="0.25"/>
    <flow id="f_7" begin="0.00" departLane="1" color="red" from="E5" to="E0" via="E6" end="3600.00" probability="0.20"/>
    <flow id="f_8" begin="0.00" color="red" from="E5" to="-E27" via="E6 E18" end="3600.00" probability="0.20"/>
    <flow id="f_9" begin="0.00" departLane="1" color="red" from="-E0" to="-E53" via="E18" end="3600.00" probability="0.20"/>
</routes>
