<?xml version="1.0" encoding="UTF-8"?>

<!-- generated on 2022-04-08 11:07:18 by Eclipse SUMO netedit Version 1.12.0
<configuration xmlns:xsi="http://www.w3.org/2001/XMLSchema-instance" xsi:noNamespaceSchemaLocation="http://sumo.dlr.de/xsd/netconvertConfiguration.xsd">

    <input>
        <sumo-net-file value="C:\Users\seegras\Git\sumo-gym\data\scenarios\Urban\map.net.xml"/>
    </input>

    <output>
        <output-file value="C:\Users\seegras\Git\sumo-gym\data\scenarios\Urban\map.net.xml"/>
    </output>

    <processing>
        <geometry.min-radius.fix.railways value="false"/>
        <geometry.max-grade.fix value="false"/>
        <offset.disable-normalization value="true"/>
        <lefthand value="false"/>
    </processing>

    <junctions>
        <no-turnarounds value="true"/>
        <junctions.corner-detail value="5"/>
        <junctions.limit-turn-speed value="5.5"/>
        <rectangular-lane-cut value="false"/>
    </junctions>

    <pedestrian>
        <walkingareas value="false"/>
    </pedestrian>

    <netedit>
        <route-files value="C:\Users\seegras\Git\sumo-gym\data\scenarios\Urban\Urban-2.rou.xml"/>
    </netedit>

    <report>
        <aggregate-warnings value="5"/>
    </report>

</configuration>
-->

<net version="1.9" junctionCornerDetail="5" limitTurnSpeed="5.50" xmlns:xsi="http://www.w3.org/2001/XMLSchema-instance" xsi:noNamespaceSchemaLocation="http://sumo.dlr.de/xsd/net_file.xsd">

    <location netOffset="0.00,0.00" convBoundary="-305.76,-180.16,74.98,144.07" origBoundary="-10000000000.00,-10000000000.00,10000000000.00,10000000000.00" projParameter="!"/>

    <type id="edgeType_0" numLanes="2"/>

    <edge id=":J0_0" function="internal">
        <lane id=":J0_0_0" index="0" speed="6.60" length="9.23" shape="-129.55,64.41 -132.03,64.77 -133.81,65.84 -134.90,67.63 -135.30,70.15"/>
    </edge>
    <edge id=":J0_1" function="internal">
        <lane id=":J0_1_0" index="0" speed="13.89" length="20.88" shape="-129.55,64.41 -150.42,64.35"/>
        <lane id=":J0_1_1" index="1" speed="13.89" length="20.88" shape="-129.54,61.21 -150.41,61.15"/>
    </edge>
    <edge id=":J0_3" function="internal">
        <lane id=":J0_3_0" index="0" speed="9.27" length="5.00" shape="-129.54,61.21 -134.49,60.49"/>
    </edge>
    <edge id=":J0_16" function="internal">
        <lane id=":J0_16_0" index="0" speed="9.27" length="14.36" shape="-134.49,60.49 -134.78,60.45 -138.52,58.18 -140.76,54.42 -141.51,49.17"/>
    </edge>
    <edge id=":J0_4" function="internal">
        <lane id=":J0_4_0" index="0" speed="6.52" length="9.05" shape="-135.11,49.18 -134.76,51.64 -133.71,53.40 -131.96,54.46 -129.52,54.82"/>
    </edge>
    <edge id=":J0_5" function="internal">
        <lane id=":J0_5_0" index="0" speed="13.89" length="20.95" shape="-135.11,49.18 -135.30,70.15"/>
        <lane id=":J0_5_1" index="1" speed="13.89" length="20.95" shape="-138.31,49.17 -138.50,70.09"/>
    </edge>
    <edge id=":J0_7" function="internal">
        <lane id=":J0_7_0" index="0" speed="9.27" length="19.43" shape="-138.31,49.17 -139.07,54.43 -141.34,58.17 -145.12,60.41 -150.41,61.15"/>
    </edge>
    <edge id=":J0_8" function="internal">
        <lane id=":J0_8_0" index="0" speed="6.52" length="9.09" shape="-150.39,54.75 -147.91,54.41 -146.13,53.36 -145.06,51.61 -144.71,49.16"/>
    </edge>
    <edge id=":J0_9" function="internal">
        <lane id=":J0_9_0" index="0" speed="13.89" length="20.88" shape="-150.39,54.75 -129.52,54.82"/>
        <lane id=":J0_9_1" index="1" speed="13.89" length="20.88" shape="-150.40,57.95 -129.53,58.01"/>
    </edge>
    <edge id=":J0_11" function="internal">
        <lane id=":J0_11_0" index="0" speed="9.24" length="5.01" shape="-150.40,57.95 -145.45,58.67"/>
    </edge>
    <edge id=":J0_17" function="internal">
        <lane id=":J0_17_0" index="0" speed="9.24" length="14.45" shape="-145.45,58.67 -145.12,58.72 -141.37,61.00 -139.16,64.79 -138.50,70.09"/>
    </edge>
    <edge id=":J0_12" function="internal">
        <lane id=":J0_12_0" index="0" speed="6.48" length="9.03" shape="-144.90,69.99 -145.21,67.53 -146.23,65.77 -147.97,64.71 -150.42,64.35"/>
    </edge>
    <edge id=":J0_13" function="internal">
        <lane id=":J0_13_0" index="0" speed="13.89" length="20.85" shape="-144.90,69.99 -144.71,49.16"/>
        <lane id=":J0_13_1" index="1" speed="13.89" length="20.85" shape="-141.70,70.04 -141.51,49.17"/>
    </edge>
    <edge id=":J0_15" function="internal">
        <lane id=":J0_15_0" index="0" speed="9.33" length="19.45" shape="-141.70,70.04 -140.86,64.76 -138.55,61.00 -134.78,58.75 -129.53,58.01"/>
    </edge>
    <edge id=":J10_0" function="internal">
        <lane id=":J10_0_0" index="0" speed="6.67" length="7.45" width="4.00" shape="-74.39,-93.94 -72.52,-93.69 -70.84,-94.06 -69.35,-95.04 -68.05,-96.63"/>
    </edge>
    <edge id=":J10_1" function="internal">
        <lane id=":J10_1_0" index="0" speed="8.23" length="6.98" shape="-71.29,-85.29 -72.39,-87.55 -73.42,-89.23 -74.37,-90.33 -75.26,-90.86"/>
    </edge>
    <edge id=":J10_2" function="internal">
        <lane id=":J10_2_0" index="0" speed="9.94" length="12.17" width="4.00" shape="-71.29,-85.29 -71.70,-87.36 -71.29,-89.94 -70.08,-93.03 -68.05,-96.63"/>
    </edge>
    <edge id=":J16_0" function="internal">
        <lane id=":J16_0_0" index="0" speed="12.33" length="34.98" shape="-144.64,0.93 -145.98,-8.57 -150.02,-15.37 -156.77,-19.48 -166.23,-20.90"/>
        <lane id=":J16_0_1" index="1" speed="13.18" length="40.12" shape="-141.44,0.93 -142.97,-9.96 -147.61,-17.76 -155.36,-22.47 -166.21,-24.10"/>
    </edge>
    <edge id=":J16_2" function="internal">
        <lane id=":J16_2_0" index="0" speed="13.89" length="52.87" shape="-141.44,0.93 -141.23,-51.93"/>
    </edge>
    <edge id=":J16_3" function="internal">
        <lane id=":J16_3_0" index="0" speed="13.89" length="5.10" shape="-141.44,0.93 -140.71,-4.11"/>
    </edge>
    <edge id=":J16_16" function="internal">
        <lane id=":J16_16_0" index="0" speed="13.89" length="40.06" shape="-140.71,-4.11 -139.67,-11.33 -134.39,-20.05 -125.61,-25.22 -113.33,-26.85"/>
    </edge>
    <edge id=":J16_4" function="internal">
        <lane id=":J16_4_0" index="0" speed="12.23" length="34.77" shape="-113.39,-20.45 -122.85,-19.20 -129.61,-15.21 -133.67,-8.50 -135.04,0.94"/>
    </edge>
    <edge id=":J16_5" function="internal">
        <lane id=":J16_5_0" index="0" speed="13.89" length="52.85" shape="-113.39,-20.45 -166.23,-20.90"/>
        <lane id=":J16_5_1" index="1" speed="13.89" length="52.85" shape="-113.36,-23.65 -166.21,-24.10"/>
    </edge>
    <edge id=":J16_7" function="internal">
        <lane id=":J16_7_0" index="0" speed="13.89" length="4.97" shape="-113.36,-23.65 -118.27,-24.40"/>
    </edge>
    <edge id=":J16_17" function="internal">
        <lane id=":J16_17_0" index="0" speed="13.89" length="40.27" shape="-118.27,-24.40 -125.62,-25.53 -134.35,-30.86 -139.55,-39.67 -141.23,-51.93"/>
    </edge>
    <edge id=":J16_8" function="internal">
        <lane id=":J16_8_0" index="0" speed="12.31" length="34.95" shape="-134.83,-51.89 -133.53,-42.42 -129.51,-35.62 -122.77,-31.50 -113.30,-30.05"/>
    </edge>
    <edge id=":J16_9" function="internal">
        <lane id=":J16_9_0" index="0" speed="13.89" length="52.84" shape="-134.83,-51.89 -135.04,0.94"/>
        <lane id=":J16_9_1" index="1" speed="13.89" length="52.84" shape="-138.03,-51.91 -138.24,0.94"/>
    </edge>
    <edge id=":J16_11" function="internal">
        <lane id=":J16_11_0" index="0" speed="13.89" length="4.93" shape="-138.03,-51.91 -138.76,-47.04"/>
    </edge>
    <edge id=":J16_18" function="internal">
        <lane id=":J16_18_0" index="0" speed="13.89" length="40.23" shape="-138.76,-47.04 -139.86,-39.67 -145.16,-30.96 -153.95,-25.77 -166.21,-24.10"/>
    </edge>
    <edge id=":J16_12" function="internal">
        <lane id=":J16_12_0" index="0" speed="12.28" length="34.83" shape="-166.17,-30.50 -156.71,-31.79 -149.93,-35.79 -145.84,-42.51 -144.43,-51.95"/>
    </edge>
    <edge id=":J16_13" function="internal">
        <lane id=":J16_13_0" index="0" speed="13.89" length="52.87" shape="-166.17,-30.50 -113.30,-30.05"/>
        <lane id=":J16_13_1" index="1" speed="13.89" length="52.87" shape="-166.19,-27.30 -113.33,-26.85"/>
    </edge>
    <edge id=":J16_15" function="internal">
        <lane id=":J16_15_0" index="0" speed="13.89" length="5.07" shape="-166.19,-27.30 -161.18,-26.55"/>
    </edge>
    <edge id=":J16_19" function="internal">
        <lane id=":J16_19_0" index="0" speed="13.89" length="40.19" shape="-161.18,-26.55 -153.95,-25.46 -145.21,-20.15 -139.97,-11.34 -138.24,0.94"/>
    </edge>
    <edge id=":J18_0" function="internal">
        <lane id=":J18_0_0" index="0" speed="6.55" length="9.13" shape="-243.02,-15.73 -243.37,-18.22 -244.43,-20.00 -246.19,-21.07 -248.65,-21.44"/>
    </edge>
    <edge id=":J18_1" function="internal">
        <lane id=":J18_1_0" index="0" speed="13.89" length="20.87" shape="-243.02,-15.73 -242.99,-36.62"/>
        <lane id=":J18_1_1" index="1" speed="13.89" length="20.87" shape="-239.82,-15.74 -239.79,-36.60"/>
    </edge>
    <edge id=":J18_3" function="internal">
        <lane id=":J18_3_0" index="0" speed="9.24" length="19.42" shape="-239.82,-15.74 -239.07,-21.02 -236.82,-24.77 -233.05,-27.01 -227.77,-27.73"/>
    </edge>
    <edge id=":J18_4" function="internal">
        <lane id=":J18_4_0" index="0" speed="6.49" length="9.03" shape="-227.82,-21.33 -230.27,-20.99 -232.02,-19.95 -233.07,-18.21 -233.42,-15.75"/>
    </edge>
    <edge id=":J18_5" function="internal">
        <lane id=":J18_5_0" index="0" speed="13.89" length="20.84" shape="-227.82,-21.33 -248.65,-21.44"/>
        <lane id=":J18_5_1" index="1" speed="13.89" length="20.84" shape="-227.79,-24.53 -248.64,-24.64"/>
    </edge>
    <edge id=":J18_7" function="internal">
        <lane id=":J18_7_0" index="0" speed="9.28" length="4.98" shape="-227.79,-24.53 -232.72,-25.26"/>
    </edge>
    <edge id=":J18_16" function="internal">
        <lane id=":J18_16_0" index="0" speed="9.28" length="14.42" shape="-232.72,-25.26 -233.06,-25.31 -236.82,-27.59 -239.06,-31.35 -239.79,-36.60"/>
    </edge>
    <edge id=":J18_8" function="internal">
        <lane id=":J18_8_0" index="0" speed="6.53" length="9.10" shape="-233.39,-36.57 -233.05,-34.12 -231.99,-32.36 -230.23,-31.30 -227.75,-30.93"/>
    </edge>
    <edge id=":J18_9" function="internal">
        <lane id=":J18_9_0" index="0" speed="13.89" length="20.83" shape="-233.39,-36.57 -233.42,-15.75"/>
        <lane id=":J18_9_1" index="1" speed="13.89" length="20.83" shape="-236.59,-36.59 -236.62,-15.75"/>
    </edge>
    <edge id=":J18_11" function="internal">
        <lane id=":J18_11_0" index="0" speed="9.26" length="19.34" shape="-236.59,-36.59 -237.37,-31.34 -239.63,-27.60 -243.39,-25.37 -248.64,-24.64"/>
    </edge>
    <edge id=":J18_12" function="internal">
        <lane id=":J18_12_0" index="0" speed="6.51" length="9.03" shape="-248.62,-31.04 -246.17,-31.38 -244.41,-32.42 -243.35,-34.17 -242.99,-36.62"/>
    </edge>
    <edge id=":J18_13" function="internal">
        <lane id=":J18_13_0" index="0" speed="13.89" length="20.86" shape="-248.62,-31.04 -227.75,-30.93"/>
        <lane id=":J18_13_1" index="1" speed="13.89" length="20.86" shape="-248.63,-27.84 -227.77,-27.73"/>
    </edge>
    <edge id=":J18_15" function="internal">
        <lane id=":J18_15_0" index="0" speed="9.29" length="5.05" shape="-248.63,-27.84 -243.63,-27.10"/>
    </edge>
    <edge id=":J18_17" function="internal">
        <lane id=":J18_17_0" index="0" speed="9.29" length="14.36" shape="-243.63,-27.10 -243.38,-27.07 -239.63,-24.79 -237.38,-21.02 -236.62,-15.75"/>
    </edge>
    <edge id=":J2_0" function="internal">
        <lane id=":J2_0_0" index="0" speed="6.56" length="9.03" shape="-64.11,-14.39 -64.49,-16.82 -65.56,-18.57 -67.31,-19.63 -69.75,-20.00"/>
    </edge>
    <edge id=":J2_1" function="internal">
        <lane id=":J2_1_0" index="0" speed="13.89" length="21.02" shape="-64.11,-14.39 -63.70,-21.15 -62.65,-26.64 -61.58,-31.19 -61.10,-35.14"/>
    </edge>
    <edge id=":J2_2" function="internal">
        <lane id=":J2_2_0" index="0" speed="11.56" length="30.99" shape="-64.11,-14.39 -62.76,-21.00 -58.50,-25.73 -51.32,-28.59 -41.22,-29.57"/>
        <lane id=":J2_2_1" index="1" speed="10.59" length="25.84" shape="-60.91,-14.44 -59.74,-19.63 -56.07,-23.35 -49.89,-25.60 -41.21,-26.37"/>
    </edge>
    <edge id=":J2_4" function="internal">
        <lane id=":J2_4_0" index="0" speed="8.38" length="23.30" shape="-60.91,-14.44 -59.30,-19.53 -54.99,-20.54 -49.14,-18.56 -42.86,-14.72"/>
    </edge>
    <edge id=":J2_5" function="internal">
        <lane id=":J2_5_0" index="0" speed="13.89" length="26.52" shape="-44.73,-12.13 -48.95,-14.58 -55.01,-17.12 -62.19,-19.14 -69.75,-20.00"/>
    </edge>
    <edge id=":J2_6" function="internal">
        <lane id=":J2_6_0" index="0" speed="13.89" length="29.20" shape="-44.73,-12.13 -51.88,-17.97 -56.99,-23.76 -60.06,-29.48 -61.10,-35.14"/>
    </edge>
    <edge id=":J2_7" function="internal">
        <lane id=":J2_7_0" index="0" speed="7.25" length="19.74" shape="-44.73,-12.13 -48.12,-16.36 -48.51,-21.02 -46.13,-24.80 -41.21,-26.37"/>
    </edge>
    <edge id=":J2_8" function="internal">
        <lane id=":J2_8_0" index="0" speed="5.46" length="10.42" shape="-41.18,-19.97 -44.63,-19.63 -46.07,-18.64 -45.48,-17.01 -42.86,-14.72"/>
    </edge>
    <edge id=":J2_9" function="internal">
        <lane id=":J2_9_0" index="0" speed="13.89" length="28.55" shape="-41.18,-19.97 -69.75,-20.00"/>
        <lane id=":J2_9_1" index="1" speed="13.89" length="28.55" shape="-41.19,-23.17 -69.72,-23.20"/>
    </edge>
    <edge id=":J2_11" function="internal">
        <lane id=":J2_11_0" index="0" speed="10.67" length="8.61" shape="-41.19,-23.17 -49.78,-23.88"/>
    </edge>
    <edge id=":J2_19" function="internal">
        <lane id=":J2_19_0" index="0" speed="10.67" length="17.42" shape="-49.78,-23.88 -49.89,-23.89 -56.10,-26.13 -59.84,-29.87 -61.10,-35.14"/>
    </edge>
    <edge id=":J2_12" function="internal">
        <lane id=":J2_12_0" index="0" speed="9.15" length="18.88" shape="-57.90,-35.15 -56.85,-32.69 -53.72,-30.94 -48.51,-29.90 -41.22,-29.57"/>
    </edge>
    <edge id=":J2_13" function="internal">
        <lane id=":J2_13_0" index="0" speed="13.89" length="26.20" shape="-57.90,-35.15 -56.95,-30.26 -54.12,-25.23 -49.43,-20.05 -42.86,-14.72"/>
    </edge>
    <edge id=":J2_14" function="internal">
        <lane id=":J2_14_0" index="0" speed="9.18" length="19.22" shape="-57.90,-35.15 -58.62,-29.88 -60.83,-26.13 -64.53,-23.91 -69.72,-23.20"/>
    </edge>
    <edge id=":J2_15" function="internal">
        <lane id=":J2_15_0" index="0" speed="7.23" length="11.50" shape="-69.65,-29.60 -65.90,-29.92 -63.23,-30.94 -61.63,-32.69 -61.10,-35.14"/>
    </edge>
    <edge id=":J2_16" function="internal">
        <lane id=":J2_16_0" index="0" speed="13.89" length="28.45" shape="-69.65,-29.60 -41.22,-29.57"/>
        <lane id=":J2_16_1" index="1" speed="13.89" length="28.45" shape="-69.68,-26.40 -41.21,-26.37"/>
    </edge>
    <edge id=":J2_18" function="internal">
        <lane id=":J2_18_0" index="0" speed="13.89" length="3.93" shape="-69.68,-26.40 -65.82,-25.69"/>
    </edge>
    <edge id=":J2_20" function="internal">
        <lane id=":J2_20_0" index="0" speed="13.89" length="25.67" shape="-65.82,-25.69 -61.85,-24.95 -54.05,-21.62 -47.36,-17.77 -42.86,-14.72"/>
    </edge>
    <edge id=":J21_0" function="internal">
        <lane id=":J21_0_0" index="0" speed="10.66" length="12.19" shape="-229.57,-74.34 -231.17,-72.50 -232.32,-70.02 -233.02,-66.88 -233.27,-63.09"/>
    </edge>
    <edge id=":J21_1" function="internal">
        <lane id=":J21_1_0" index="0" speed="13.89" length="19.30" shape="-229.57,-74.34 -234.34,-70.83 -238.17,-69.20 -242.42,-68.74 -248.46,-68.71"/>
        <lane id=":J21_1_1" index="1" speed="13.89" length="19.30" shape="-231.60,-76.81 -235.87,-73.69 -239.29,-72.29 -243.09,-71.92 -248.49,-71.91"/>
    </edge>
    <edge id=":J21_3" function="internal">
        <lane id=":J21_3_0" index="0" speed="13.59" length="14.88" shape="-248.53,-78.31 -244.44,-78.27 -241.53,-78.46 -238.92,-79.43 -235.68,-81.75"/>
        <lane id=":J21_3_1" index="1" speed="13.89" length="14.88" shape="-248.51,-75.11 -243.77,-75.10 -240.41,-75.37 -237.39,-76.56 -233.64,-79.28"/>
    </edge>
    <edge id=":J21_5" function="internal">
        <lane id=":J21_5_0" index="0" speed="9.24" length="5.17" shape="-248.51,-75.11 -243.38,-74.42"/>
    </edge>
    <edge id=":J21_8" function="internal">
        <lane id=":J21_8_0" index="0" speed="9.24" length="14.27" shape="-243.38,-74.42 -243.22,-74.39 -239.45,-72.15 -237.20,-68.39 -236.47,-63.10"/>
    </edge>
    <edge id=":J21_6" function="internal">
        <lane id=":J21_6_0" index="0" speed="6.48" length="9.03" shape="-242.87,-63.13 -243.21,-65.59 -244.25,-67.34 -246.01,-68.38 -248.46,-68.71"/>
    </edge>
    <edge id=":J21_7" function="internal">
        <lane id=":J21_7_0" index="0" speed="12.79" length="17.79" shape="-239.67,-63.12 -239.27,-68.34 -238.14,-72.77 -236.26,-76.42 -233.64,-79.28"/>
    </edge>
    <edge id=":J22_0" function="internal">
        <lane id=":J22_0_0" index="0" speed="13.89" length="2.06" shape="-199.76,-99.27 -200.20,-98.71 -200.52,-98.35 -200.88,-98.02 -201.43,-97.56"/>
        <lane id=":J22_0_1" index="1" speed="13.89" length="2.06" shape="-202.27,-101.25 -202.59,-100.85 -202.82,-100.59 -203.07,-100.35 -203.46,-100.03"/>
    </edge>
    <edge id=":J22_2" function="internal">
        <lane id=":J22_2_0" index="0" speed="13.89" length="0.69" shape="-207.54,-104.96 -207.46,-105.03 -207.41,-105.08 -207.36,-105.13 -207.30,-105.21"/>
        <lane id=":J22_2_1" index="1" speed="13.89" length="0.69" shape="-205.50,-102.50 -205.26,-102.69 -205.11,-102.83 -204.97,-102.99 -204.78,-103.23"/>
    </edge>
    <edge id=":J23_0" function="internal">
        <lane id=":J23_0_0" index="0" speed="6.00" length="9.08" shape="-128.59,-105.93 -131.16,-106.27 -133.00,-105.65 -134.12,-104.05 -134.50,-101.49"/>
    </edge>
    <edge id=":J23_1" function="internal">
        <lane id=":J23_1_0" index="0" speed="10.40" length="16.43" shape="-128.59,-105.93 -133.92,-107.76 -137.86,-109.86 -140.41,-112.21 -141.56,-114.82"/>
    </edge>
    <edge id=":J23_2" function="internal">
        <lane id=":J23_2_0" index="0" speed="8.51" length="10.77" shape="-135.25,-115.87 -134.47,-113.58 -132.95,-111.67 -130.70,-110.15 -127.72,-109.01"/>
    </edge>
    <edge id=":J23_3" function="internal">
        <lane id=":J23_3_0" index="0" speed="13.89" length="14.16" shape="-135.25,-115.87 -134.63,-111.64 -134.41,-108.71 -134.43,-105.77 -134.50,-101.49"/>
        <lane id=":J23_3_1" index="1" speed="13.89" length="14.16" shape="-138.40,-115.35 -137.81,-111.27 -137.61,-108.46 -137.63,-105.63 -137.70,-101.51"/>
    </edge>
    <edge id=":J23_5" function="internal">
        <lane id=":J23_5_0" index="0" speed="13.89" length="13.07" shape="-144.10,-101.55 -144.03,-105.35 -144.00,-107.96 -144.18,-110.55 -144.72,-114.30"/>
        <lane id=":J23_5_1" index="1" speed="13.89" length="13.07" shape="-140.90,-101.53 -140.83,-105.49 -140.81,-108.21 -140.99,-110.91 -141.56,-114.82"/>
    </edge>
    <edge id=":J23_7" function="internal">
        <lane id=":J23_7_0" index="0" speed="8.30" length="4.36" shape="-140.90,-101.53 -140.12,-105.82"/>
    </edge>
    <edge id=":J23_8" function="internal">
        <lane id=":J23_8_0" index="0" speed="8.30" length="14.15" shape="-140.12,-105.82 -140.05,-106.19 -137.57,-108.99 -133.46,-109.93 -127.72,-109.01"/>
    </edge>
    <edge id=":J26_0" function="internal">
        <lane id=":J26_0_0" index="0" speed="13.89" length="0.29" shape="-242.97,8.18 -242.97,7.89"/>
        <lane id=":J26_0_1" index="1" speed="13.89" length="0.29" shape="-239.77,8.18 -239.77,7.88"/>
    </edge>
    <edge id=":J26_2" function="internal">
        <lane id=":J26_2_0" index="0" speed="13.89" length="0.31" shape="-233.37,7.87 -233.37,8.18"/>
        <lane id=":J26_2_1" index="1" speed="13.89" length="0.31" shape="-236.57,7.88 -236.57,8.18"/>
    </edge>
    <edge id=":J28_0" function="internal">
        <lane id=":J28_0_0" index="0" speed="6.17" length="9.05" shape="-147.13,-128.87 -147.89,-131.30 -149.24,-132.75 -151.16,-133.24 -153.66,-132.76"/>
    </edge>
    <edge id=":J28_1" function="internal">
        <lane id=":J28_1_0" index="0" speed="13.89" length="19.88" shape="-147.13,-128.87 -148.21,-134.95 -148.67,-139.36 -147.94,-143.59 -145.49,-149.09"/>
        <lane id=":J28_1_1" index="1" speed="13.89" length="19.88" shape="-143.97,-129.39 -144.99,-134.90 -145.47,-138.84 -144.87,-142.61 -142.66,-147.60"/>
    </edge>
    <edge id=":J28_3" function="internal">
        <lane id=":J28_3_0" index="0" speed="13.89" length="14.66" shape="-137.00,-144.61 -138.66,-140.73 -139.00,-137.80 -138.50,-134.72 -137.65,-130.44"/>
    </edge>
    <edge id=":J28_4" function="internal">
        <lane id=":J28_4_0" index="0" speed="13.89" length="9.63" shape="-137.00,-144.61 -140.24,-139.49 -142.92,-137.13"/>
        <lane id=":J28_4_1" index="1" speed="13.89" length="4.76" shape="-139.83,-146.10 -142.38,-142.09"/>
    </edge>
    <edge id=":J28_9" function="internal">
        <lane id=":J28_9_0" index="0" speed="13.89" length="11.66" shape="-142.92,-137.13 -143.53,-136.60 -147.73,-134.75 -153.66,-132.76"/>
    </edge>
    <edge id=":J28_10" function="internal">
        <lane id=":J28_10_0" index="0" speed="13.89" length="14.13" shape="-142.38,-142.09 -142.73,-141.53 -145.64,-139.05 -149.37,-137.52 -154.71,-135.78"/>
    </edge>
    <edge id=":J28_6" function="internal">
        <lane id=":J28_6_0" index="0" speed="12.77" length="15.25" shape="-156.79,-141.79 -152.79,-143.04 -149.94,-144.04 -147.68,-145.75 -145.49,-149.09"/>
        <lane id=":J28_6_1" index="1" speed="13.80" length="15.25" shape="-155.74,-138.77 -151.07,-140.27 -147.79,-141.54 -145.21,-143.64 -142.66,-147.60"/>
    </edge>
    <edge id=":J28_8" function="internal">
        <lane id=":J28_8_0" index="0" speed="9.01" length="20.69" shape="-155.74,-138.77 -150.04,-139.89 -145.64,-138.79 -142.57,-135.46 -140.81,-129.91"/>
    </edge>
    <edge id=":J4_0" function="internal">
        <lane id=":J4_0_0" index="0" speed="6.52" length="8.68" shape="9.43,-14.88 8.96,-17.20 7.87,-18.85 6.16,-19.84 3.81,-20.16"/>
        <lane id=":J4_0_1" index="1" speed="8.01" length="13.65" shape="12.62,-15.07 11.89,-18.71 10.18,-21.30 7.48,-22.85 3.80,-23.36"/>
    </edge>
    <edge id=":J4_2" function="internal">
        <lane id=":J4_2_0" index="0" speed="13.22" length="2.89" shape="12.62,-15.07 12.75,-17.95"/>
    </edge>
    <edge id=":J4_7" function="internal">
        <lane id=":J4_7_0" index="0" speed="13.22" length="16.91" shape="12.75,-17.95 12.85,-20.15 14.14,-24.79 16.50,-28.99 19.92,-32.74"/>
    </edge>
    <edge id=":J4_3" function="internal">
        <lane id=":J4_3_0" index="0" speed="11.79" length="15.62" shape="22.05,-30.35 20.47,-28.18 19.44,-24.97 18.95,-20.72 19.01,-15.44"/>
    </edge>
    <edge id=":J4_4" function="internal">
        <lane id=":J4_4_0" index="0" speed="13.89" length="20.04" shape="22.05,-30.35 19.00,-27.86 15.19,-25.62 10.25,-24.00 3.80,-23.36"/>
    </edge>
    <edge id=":J4_5" function="internal">
        <lane id=":J4_5_0" index="0" speed="13.89" length="16.80" shape="3.77,-29.76 9.24,-29.77 13.53,-30.01 16.98,-30.87 19.92,-32.74"/>
    </edge>
    <edge id=":J4_6" function="internal">
        <lane id=":J4_6_0" index="0" speed="9.27" length="18.61" shape="3.79,-26.56 8.80,-25.87 12.48,-23.76 14.82,-20.22 15.82,-15.25"/>
    </edge>
    <edge id=":J46_0" function="internal">
        <lane id=":J46_0_0" index="0" speed="13.89" length="14.78" shape="-61.33,64.31 -76.23,64.59"/>
        <lane id=":J46_0_1" index="1" speed="13.89" length="14.78" shape="-61.57,61.12 -76.22,61.39"/>
    </edge>
    <edge id=":J46_2" function="internal">
        <lane id=":J46_2_0" index="0" speed="6.31" length="7.30" shape="-61.57,61.12 -64.27,60.76 -65.47,59.15 -65.20,56.60"/>
    </edge>
    <edge id=":J46_8" function="internal">
        <lane id=":J46_8_0" index="0" speed="6.31" length="4.79" shape="-65.20,56.60 -65.17,56.29 -63.36,52.18"/>
    </edge>
    <edge id=":J46_3" function="internal">
        <lane id=":J46_3_0" index="0" speed="9.03" length="11.45" shape="-76.20,54.99 -72.70,54.73 -69.86,53.92 -67.69,52.57 -66.18,50.66"/>
        <lane id=":J46_3_1" index="1" speed="10.24" length="14.90" shape="-76.21,58.19 -71.81,57.83 -68.21,56.71 -65.39,54.83 -63.36,52.18"/>
    </edge>
    <edge id=":J46_5" function="internal">
        <lane id=":J46_5_0" index="0" speed="6.46" length="9.03" shape="-70.73,70.24 -71.02,67.78 -72.04,66.02 -73.77,64.95 -76.23,64.59"/>
    </edge>
    <edge id=":J46_6" function="internal">
        <lane id=":J46_6_0" index="0" speed="13.89" length="19.69" shape="-70.73,70.24 -70.59,64.20 -70.15,60.00 -68.86,56.03 -66.18,50.66"/>
        <lane id=":J46_6_1" index="1" speed="13.89" length="19.69" shape="-67.53,70.32 -67.41,64.71 -67.02,60.83 -65.85,57.16 -63.36,52.18"/>
    </edge>
    <edge id=":J48_0" function="internal">
        <lane id=":J48_0_0" index="0" speed="10.36" length="24.47" shape="-227.83,64.11 -234.46,63.14 -239.20,60.29 -242.04,55.54 -242.99,48.91"/>
        <lane id=":J48_0_1" index="1" speed="9.26" length="19.32" shape="-227.82,60.91 -233.06,60.15 -236.80,57.89 -239.04,54.15 -239.79,48.91"/>
    </edge>
    <edge id=":J48_2" function="internal">
        <lane id=":J48_2_0" index="0" speed="6.51" length="9.01" shape="-233.39,48.91 -233.04,51.35 -231.99,53.10 -230.25,54.16 -227.80,54.51"/>
        <lane id=":J48_2_1" index="1" speed="8.00" length="14.16" shape="-236.59,48.91 -236.04,52.75 -234.39,55.50 -231.65,57.15 -227.81,57.71"/>
    </edge>
    <edge id=":J48_4" function="internal">
        <lane id=":J48_4_0" index="0" speed="13.89" length="19.74" shape="-248.70,66.29 -245.65,61.66 -243.93,58.19 -243.16,54.42 -242.99,48.91"/>
        <lane id=":J48_4_1" index="1" speed="13.89" length="19.74" shape="-246.05,68.08 -242.71,62.99 -240.82,59.13 -239.98,54.96 -239.79,48.91"/>
    </edge>
    <edge id=":J48_6" function="internal">
        <lane id=":J48_6_0" index="0" speed="13.10" length="16.49" shape="-246.05,68.08 -242.28,63.53 -237.99,60.29 -233.16,58.35"/>
    </edge>
    <edge id=":J48_7" function="internal">
        <lane id=":J48_7_0" index="0" speed="13.10" length="5.39" shape="-233.16,58.35 -227.81,57.71"/>
    </edge>
    <edge id=":J5_0" function="internal">
        <lane id=":J5_0_0" index="0" speed="8.24" length="14.60" shape="20.87,16.67 21.52,21.87 22.77,25.58 24.63,27.78 27.09,28.49"/>
    </edge>
    <edge id=":J5_1" function="internal">
        <lane id=":J5_1_0" index="0" speed="8.15" length="22.48" shape="17.68,16.85 17.18,23.47 14.71,26.68 10.27,26.48 3.87,22.87"/>
    </edge>
    <edge id=":J5_2" function="internal">
        <lane id=":J5_2_0" index="0" speed="5.53" length="9.48" shape="5.74,20.27 8.33,21.69 10.11,21.66 11.10,20.17 11.29,17.22"/>
    </edge>
    <edge id=":J5_3" function="internal">
        <lane id=":J5_3_0" index="0" speed="13.89" length="23.05" shape="5.74,20.27 10.09,22.80 16.06,25.50 22.22,27.65 27.09,28.49"/>
    </edge>
    <edge id=":J5_4" function="internal">
        <lane id=":J5_4_0" index="0" speed="8.83" length="13.62" shape="10.53,33.80 10.76,31.27 9.72,28.61 7.42,25.81 3.87,22.87"/>
    </edge>
    <edge id=":J5_5" function="internal">
        <lane id=":J5_5_0" index="0" speed="13.89" length="17.43" shape="10.53,33.80 11.87,29.07 12.11,25.68 11.76,22.20 11.29,17.22"/>
        <lane id=":J5_5_1" index="1" speed="13.89" length="17.43" shape="13.56,34.85 15.01,29.76 15.31,26.12 14.97,22.39 14.48,17.04"/>
    </edge>
    <edge id=":J5_7" function="internal">
        <lane id=":J5_7_0" index="0" speed="9.77" length="15.89" shape="13.56,34.85 15.21,32.13 18.02,30.16 21.98,28.95 27.09,28.49"/>
    </edge>
    <edge id=":J62_0" function="internal">
        <lane id=":J62_0_0" index="0" speed="13.89" length="0.26" shape="-63.73,16.28 -63.73,16.05"/>
        <lane id=":J62_0_1" index="1" speed="13.89" length="0.26" shape="-60.53,16.33 -60.53,16.02"/>
    </edge>
    <edge id=":J66_0" function="internal">
        <lane id=":J66_0_0" index="0" speed="7.35" length="1.83" shape="-187.62,-130.20 -187.11,-130.83 -186.69,-131.21 -186.20,-131.48 -185.44,-131.76"/>
        <lane id=":J66_0_1" index="1" speed="13.89" length="1.83" shape="-185.11,-128.22 -184.94,-128.43 -184.80,-128.56 -184.63,-128.65 -184.38,-128.74"/>
    </edge>
    <edge id=":J68_0" function="internal">
        <lane id=":J68_0_0" index="0" speed="13.89" length="1.55" shape="-64.42,47.41 -64.31,47.21 -64.25,47.06 -64.23,46.90 -64.22,46.68"/>
        <lane id=":J68_0_1" index="1" speed="7.93" length="1.55" shape="-61.60,48.94 -61.29,48.33 -61.12,47.88 -61.05,47.41 -61.02,46.73"/>
    </edge>
    <edge id=":J69_0" function="internal">
        <lane id=":J69_0_0" index="0" speed="13.89" length="0.30" shape="-63.91,-1.00 -63.91,-1.30"/>
        <lane id=":J69_0_1" index="1" speed="13.89" length="0.30" shape="-60.71,-1.04 -60.71,-1.34"/>
    </edge>
    <edge id=":J8_0" function="internal">
        <lane id=":J8_0_0" index="0" speed="8.46" length="7.51" width="4.00" shape="-61.24,-71.60 -61.51,-72.94 -62.29,-74.39 -63.59,-75.95 -65.40,-77.61"/>
    </edge>
    <edge id=":J8_1" function="internal">
        <lane id=":J8_1_0" index="0" speed="6.88" length="7.91" shape="-53.95,-77.65 -55.75,-76.84 -57.03,-75.57 -57.80,-73.82 -58.04,-71.61"/>
    </edge>
    <edge id=":J8_2" function="internal">
        <lane id=":J8_2_0" index="0" speed="9.91" length="11.79" width="4.00" shape="-53.95,-77.65 -57.89,-76.75 -61.11,-76.44 -63.62,-76.73 -65.40,-77.61"/>
    </edge>
    <edge id=":J9_0" function="internal">