<?xml version="1.0" encoding="UTF-8"?>

<!-- generated on 2022-04-08 11:02:31 by Eclipse SUMO netedit Version 1.12.0
-->

<routes xmlns:xsi="http://www.w3.org/2001/XMLSchema-instance" xsi:noNamespaceSchemaLocation="http://sumo.dlr.de/xsd/routes_file.xsd">
    <route id="route_ego" edges="E8 E19 E17 E130"/>
    <vehicle id="ego" depart="0.00" route="route_ego"/>
    <flow id="f_0" begin="0.00" color="red" from="E9" to="E130" end="3600.00" probability="0.10"/>
    <flow id="f_1" begin="0.00" color="red" from="E9" to="-E80" end="3600.00" probability="0.10"/>
    <flow id="f_2" begin="0.00" color="red" from="E9" to="-E90" via="E15" end="3600.00" probability="0.10"/>
    <flow id="f_3" begin="0.00" color="red" from="-E13" to="-E80" end="3600.00" probability="0.10"/>
    <flow id="f_4" begin="0.00" color="red" from="-E13" to="-E90" via="E15" end="3600.00" probability="0.10"/>
    <flow id="f_5" begin="0.00" color="red" from="-E13" to="E130" via="E15 E19 E17" end="3600.00" probability="0.10"/>
    <flow id="f_6" begin="0.00" color="red" from="-E16" to="E2" end="3600.00" probability="0.20"/>
    <flow id="f_7" begin="0.00" color="red" from="-E2" to="-E90" via="E8" end="3600.00" probability="0.10"/>
</routes>
