<?xml version="1.0" encoding="UTF-8"?>

<!-- generated on 2022-11-25 15:41:49 by Eclipse SUMO netconvert Version 1.15.0
<configuration xmlns:xsi="http://www.w3.org/2001/XMLSchema-instance" xsi:noNamespaceSchemaLocation="http://sumo.dlr.de/xsd/netconvertConfiguration.xsd">

    <input>
        <node-files value=".\test1.nod.xml"/>
        <edge-files value=".\test1.edg.xml"/>
    </input>

    <junctions>
        <no-turnarounds value="true"/>
        <junctions.corner-detail value="50"/>
        <junctions.internal-link-detail value="50"/>
    </junctions>

</configuration>
-->

<net version="1.9" junctionCornerDetail="50" junctionLinkDetail="50" limitTurnSpeed="5.50" xmlns:xsi="http://www.w3.org/2001/XMLSchema-instance" xsi:noNamespaceSchemaLocation="http://sumo.dlr.de/xsd/net_file.xsd">

    <location netOffset="52.55,68.08" convBoundary="0.00,0.00,103.52,142.66" origBoundary="-52.55,-68.08,50.97,74.58" projParameter="!"/>

    <edge id=":center_0" function="internal">
        <lane id=":center_0_0" index="0" speed="13.89" length="17.66" shape="66.03,62.95 65.76,63.10 65.51,63.26 65.26,63.42 65.02,63.59 64.78,63.76 64.56,63.94 64.33,64.12 64.12,64.31 63.91,64.51 63.70,64.71 63.51,64.91 63.31,65.12 63.12,65.34 62.94,65.56 62.75,65.79 62.58,66.03 62.40,66.27 62.23,66.52 62.06,66.77 61.90,67.03 61.73,67.30 61.57,67.57 61.41,67.85 61.26,68.14 61.10,68.44 60.95,68.74 60.79,69.05 60.64,69.36 60.49,69.68 60.33,70.01 60.18,70.35 60.02,70.69 59.87,71.05 59.71,71.40 59.55,71.77 59.39,72.15 59.23,72.53 59.07,72.92 58.90,73.32 58.73,73.72 58.56,74.14 58.39,74.56 58.21,74.99 58.03,75.43 57.84,75.88 57.65,76.34 57.45,76.80 57.25,77.28 57.04,77.76"/>
    </edge>
    <edge id=":center_1" function="internal">
        <lane id=":center_1_0" index="0" speed="10.01" length="9.15" shape="66.03,62.95 65.46,63.26 64.90,63.56 64.35,63.85 63.81,64.13 63.27,64.39 62.74,64.64 62.22,64.88 61.70,65.11 61.19,65.32 60.69,65.52 60.20,65.71 59.72,65.88 59.24,66.05 58.77,66.20 58.31,66.33 57.85,66.46 57.63,66.51"/>
    </edge>
    <edge id=":center_9" function="internal">
        <lane id=":center_9_0" index="0" speed="10.01" length="11.92" shape="57.63,66.51 57.40,66.57 56.96,66.67 56.53,66.76 56.10,66.83 55.68,66.89 55.27,66.94 54.86,66.98 54.47,67.00 54.08,67.01 53.70,67.01 53.32,67.00 52.95,66.97 52.59,66.93 52.24,66.88 51.89,66.82 51.56,66.74 51.23,66.65 50.90,66.55 50.59,66.43 50.28,66.30 49.98,66.16 49.68,66.01 49.39,65.85 49.12,65.67 48.84,65.48 48.58,65.27 48.32,65.06 48.07,64.83 47.83,64.59 47.59,64.33 47.37,64.07 47.15,63.79 46.93,63.50"/>
    </edge>
    <edge id=":center_2" function="internal">
        <lane id=":center_2_0" index="0" speed="7.00" length="10.06" shape="54.22,57.14 54.32,57.28 54.42,57.43 54.53,57.56 54.64,57.70 54.76,57.82 54.88,57.94 55.00,58.05 55.13,58.16 55.26,58.26 55.39,58.35 55.53,58.44 55.67,58.52 55.81,58.59 55.96,58.66 56.11,58.72 56.26,58.78 56.42,58.83 56.58,58.87 56.74,58.91 56.91,58.94 57.08,58.97 57.26,58.99 57.43,59.00 57.61,59.01 57.80,59.01 57.99,59.00 58.18,58.99 58.37,58.97 58.57,58.95 58.77,58.92 58.98,58.88 59.19,58.84 59.40,58.79 59.62,58.73 59.83,58.67 60.06,58.60 60.28,58.53 60.51,58.45 60.75,58.36 60.98,58.27 61.22,58.17 61.47,58.07 61.71,57.96 61.96,57.84 62.22,57.71 62.47,57.59 62.73,57.45 63.00,57.31 63.26,57.16"/>
        <lane id=":center_2_1" index="1" speed="8.31" length="14.39" shape="51.79,59.26 51.95,59.49 52.12,59.71 52.29,59.93 52.46,60.13 52.64,60.33 52.83,60.52 53.02,60.70 53.21,60.87 53.40,61.03 53.61,61.18 53.81,61.32 54.02,61.45 54.23,61.58 54.45,61.69 54.67,61.80 54.89,61.90 55.12,61.99 55.36,62.06 55.60,62.13 55.84,62.20 56.08,62.25 56.33,62.29 56.59,62.33 56.85,62.35 57.11,62.37 57.37,62.37 57.65,62.37 57.92,62.36 58.20,62.34 58.48,62.31 58.77,62.28 59.06,62.23 59.36,62.17 59.66,62.11 59.96,62.03 60.27,61.95 60.58,61.86 60.90,61.76 61.22,61.65 61.54,61.53 61.87,61.40 62.20,61.26 62.54,61.12 62.88,60.96 63.22,60.80 63.57,60.63 63.93,60.44 64.28,60.25 64.64,60.05"/>
    </edge>
    <edge id=":center_4" function="internal">
        <lane id=":center_4_0" index="0" speed="11.23" length="16.39" shape="49.36,61.38 49.64,61.79 49.91,62.20 50.17,62.60 50.42,63.00 50.67,63.39 50.91,63.78 51.14,64.16 51.37,64.55 51.58,64.92 51.79,65.29 52.00,65.66 52.19,66.03 52.38,66.39 52.56,66.74 52.73,67.09 52.89,67.44 53.05,67.78 53.20,68.12 53.34,68.45 53.48,68.78 53.61,69.11 53.73,69.43 53.84,69.74 53.94,70.06 54.04,70.36 54.13,70.67 54.21,70.97 54.29,71.26 54.35,71.55 54.41,71.84 54.47,72.12 54.51,72.40 54.55,72.67 54.58,72.94 54.60,73.20 54.61,73.46 54.62,73.72 54.62,73.97 54.61,74.22 54.60,74.46 54.57,74.70 54.54,74.94 54.51,75.17 54.46,75.39 54.41,75.61 54.35,75.83 54.28,76.04 54.20,76.25 54.12,76.46"/>
        <lane id=":center_4_1" index="1" speed="10.61" length="14.56" shape="49.36,61.38 49.55,61.66 49.73,61.95 49.91,62.23 50.08,62.52 50.25,62.80 50.41,63.09 50.56,63.37 50.71,63.65 50.85,63.94 50.98,64.22 51.11,64.50 51.23,64.79 51.34,65.07 51.45,65.35 51.55,65.64 51.64,65.92 51.73,66.20 51.81,66.48 51.89,66.77 51.96,67.05 52.02,67.33 52.08,67.61 52.13,67.89 52.17,68.17 52.21,68.45 52.24,68.74 52.27,69.02 52.29,69.30 52.30,69.58 52.30,69.86 52.30,70.14 52.30,70.42 52.28,70.70 52.26,70.98 52.24,71.26 52.20,71.54 52.17,71.82 52.12,72.09 52.07,72.37 52.01,72.65 51.95,72.93 51.87,73.21 51.80,73.49 51.71,73.77 51.62,74.04 51.53,74.32 51.42,74.60 51.32,74.88 51.20,75.15"/>
    </edge>
    <edge id=":center_6" function="internal">
        <lane id=":center_6_0" index="0" speed="7.59" length="7.33" shape="45.35,72.54 45.42,72.40 45.47,72.25 45.53,72.11 45.58,71.97 45.63,71.82 45.67,71.68 45.71,71.53 45.75,71.39 45.78,71.24 45.82,71.10 45.84,70.96 45.87,70.81 45.89,70.67 45.91,70.53 45.92,70.39 45.94,70.24 45.95,70.10 45.95,69.96 45.95,69.82 45.95,69.67 45.95,69.53 45.94,69.39 45.93,69.25 45.92,69.11 45.90,68.96 45.88,68.82 45.85,68.68 45.83,68.54 45.80,68.40 45.76,68.26 45.73,68.12 45.69,67.98 45.64,67.84 45.60,67.70 45.55,67.56 45.49,67.42 45.44,67.28 45.38,67.14 45.32,67.00 45.25,66.86 45.18,66.72 45.11,66.58 45.03,66.44 44.95,66.30 44.87,66.17 44.78,66.03 44.70,65.89 44.60,65.75 44.51,65.61"/>
    </edge>
    <edge id=":center_7" function="internal">
        <lane id=":center_7_0" index="0" speed="13.89" length="23.18" shape="45.35,72.54 45.60,71.99 45.85,71.46 46.10,70.94 46.35,70.45 46.61,69.97 46.87,69.50 47.13,69.06 47.40,68.63 47.68,68.21 47.95,67.81 48.24,67.42 48.52,67.05 48.81,66.68 49.11,66.33 49.41,66.00 49.71,65.67 50.03,65.35 50.34,65.05 50.66,64.75 50.99,64.46 51.32,64.18 51.66,63.90 52.00,63.64 52.35,63.37 52.70,63.12 53.06,62.87 53.43,62.62 53.80,62.38 54.18,62.14 54.57,61.91 54.96,61.67 55.36,61.44 55.76,61.21 56.17,60.98 56.59,60.75 57.02,60.51 57.45,60.28 57.90,60.05 58.34,59.81 58.80,59.57 59.26,59.32 59.74,59.07 60.21,58.82 60.70,58.56 61.20,58.29 61.70,58.02 62.21,57.74 62.73,57.45 63.26,57.16"/>
        <lane id=":center_7_1" index="1" speed="13.89" length="23.18" shape="48.28,73.85 48.52,73.30 48.76,72.77 49.00,72.26 49.24,71.78 49.48,71.32 49.73,70.87 49.97,70.45 50.22,70.04 50.46,69.66 50.71,69.28 50.96,68.93 51.21,68.59 51.47,68.27 51.73,67.95 51.99,67.66 52.25,67.37 52.52,67.10 52.79,66.84 53.07,66.58 53.35,66.34 53.63,66.11 53.92,65.88 54.22,65.66 54.52,65.45 54.83,65.24 55.14,65.04 55.46,64.84 55.79,64.65 56.12,64.46 56.46,64.27 56.81,64.08 57.16,63.89 57.53,63.71 57.90,63.52 58.28,63.33 58.67,63.13 59.07,62.94 59.47,62.74 59.89,62.53 60.32,62.32 60.75,62.10 61.20,61.88 61.66,61.65 62.13,61.41 62.61,61.16 63.10,60.90 63.60,60.63 64.12,60.35 64.64,60.05"/>
    </edge>

    <edge id="0_in" from="0" to="center" priority="2" shape="103.52,31.05 102.86,31.83 102.18,32.60 101.51,33.37 100.82,34.13 100.13,34.88 99.43,35.63 98.72,36.37 98.01,37.10 97.29,37.83 96.56,38.56 95.83,39.27 95.09,39.98 94.35,40.68 93.60,41.38 92.84,42.07 92.08,42.76 91.31,43.43 90.54,44.11 89.76,44.77 88.98,45.43 88.19,46.08 87.40,46.73 86.60,47.37 85.79,48.01 84.99,48.63 84.17,49.26 83.36,49.87 82.53,50.48 81.71,51.09 80.88,51.69 80.04,52.28 79.20,52.87 78.36,53.45 77.51,54.03 76.66,54.60 75.81,55.16 74.95,55.72 74.09,56.27 73.22,56.82 72.36,57.36 71.48,57.90 70.61,58.43 69.73,58.96 68.85,59.48 67.97,60.00 67.08,60.51 66.19,61.02 65.30,61.52 64.40,62.02 63.51,62.51 62.61,63.00 61.70,63.48 60.80,63.96 59.89,64.44 58.98,64.91 58.07,65.37 57.15,65.83 56.24,66.29 55.32,66.74 54.40,67.19 53.48,67.64 52.55,68.08">
        <lane id="0_in_0" index="0" speed="13.89" length="49.78" shape="104.74,32.08 104.07,32.87 103.39,33.65 102.70,34.43 102.00,35.20 101.30,35.97 100.59,36.73 99.88,37.48 99.15,38.22 98.42,38.96 97.69,39.69 96.95,40.42 96.20,41.14 95.44,41.85 94.68,42.56 93.92,43.26 93.15,43.95 92.37,44.64 91.59,45.32 90.80,45.99 90.00,46.66 89.21,47.32 88.40,47.97 87.59,48.62 86.78,49.26 85.96,49.90 85.14,50.53 84.31,51.15 83.48,51.77 82.65,52.38 81.81,52.99 80.96,53.59 80.12,54.18 79.26,54.77 78.41,55.35 77.55,55.93 76.69,56.50 75.82,57.06 74.95,57.62 74.08,58.18 73.20,58.72 72.32,59.27 71.44,59.80 70.55,60.34 69.66,60.86 68.77,61.38 67.88,61.90 66.98,62.41 66.03,62.95"/>
    </edge>
    <edge id="0_out" from="center" to="0" priority="2" shape="52.55,68.08 53.48,67.64 54.40,67.19 55.32,66.74 56.24,66.29 57.15,65.83 58.07,65.37 58.98,64.91 59.89,64.44 60.80,63.96 61.70,63.48 62.61,63.00 63.51,62.51 64.40,62.02 65.30,61.52 66.19,61.02 67.08,60.51 67.97,60.00 68.85,59.48 69.73,58.96 70.61,58.43 71.48,57.90 72.36,57.36 73.22,56.82 74.09,56.27 74.95,55.72 75.81,55.16 76.66,54.60 77.51,54.03 78.36,53.45 79.20,52.87 80.04,52.28 80.88,51.69 81.71,51.09 82.53,50.48 83.36,49.87 84.17,49.26 84.99,48.63 85.79,48.01 86.60,47.37 87.40,46.73 88.19,46.08 88.98,45.43 89.76,44.77 90.54,44.11 91.31,43.43 92.08,42.76 92.84,42.07 93.60,41.38 94.35,40.68 95.09,39.98 95.83,39.27 96.56,38.56 97.29,37.83 98.01,37.10 98.72,36.37 99.43,35.63 100.13,34.88 100.82,34.13 101.51,33.37 102.18,32.60 102.86,31.83 103.52,31.05">
        <lane id="0_out_0" index="0" speed="13.89" length="47.76" shape="63.26,57.16 63.83,56.84 64.69,56.35 65.56,55.85 66.42,55.35 67.27,54.84 68.13,54.33 68.98,53.81 69.82,53.29 70.67,52.76 71.51,52.23 72.34,51.69 73.17,51.15 74.00,50.60 74.83,50.05 75.65,49.49 76.46,48.93 77.27,48.36 78.08,47.78 78.89,47.20 79.68,46.62 80.48,46.03 81.27,45.43 82.05,44.83 82.83,44.23 83.61,43.61 84.38,43.00 85.14,42.37 85.90,41.74 86.66,41.11 87.41,40.47 88.15,39.82 88.89,39.17 89.62,38.51 90.35,37.85 91.07,37.18 91.78,36.51 92.49,35.82 93.19,35.14 93.89,34.45 94.58,33.75 95.26,33.04 95.94,32.33 96.61,31.62 97.27,30.90 97.93,30.17 98.57,29.44 99.22,28.70 99.86,27.93"/>
        <lane id="0_out_1" index="1" speed="13.89" length="47.76" shape="64.64,60.05 65.40,59.63 66.28,59.12 67.16,58.62 68.04,58.10 68.91,57.59 69.78,57.07 70.65,56.54 71.51,56.01 72.37,55.47 73.23,54.92 74.08,54.38 74.93,53.82 75.78,53.26 76.62,52.70 77.46,52.13 78.29,51.55 79.12,50.97 79.95,50.39 80.77,49.79 81.58,49.20 82.40,48.59 83.20,47.98 84.01,47.37 84.81,46.75 85.60,46.12 86.39,45.49 87.17,44.85 87.95,44.20 88.73,43.55 89.50,42.89 90.26,42.23 91.02,41.56 91.77,40.89 92.52,40.20 93.26,39.52 93.99,38.82 94.72,38.12 95.44,37.42 96.16,36.70 96.87,35.99 97.57,35.26 98.27,34.53 98.95,33.79 99.64,33.05 100.31,32.30 100.98,31.54 101.64,30.78 102.30,30.01"/>
    </edge>
    <edge id="1_in" from="1" to="center" priority="1" shape="11.78,142.66 12.49,141.93 13.19,141.19 13.88,140.45 14.57,139.69 15.25,138.94 15.92,138.17 16.58,137.40 17.24,136.62 17.88,135.83 18.52,135.04 19.15,134.24 19.78,133.43 20.39,132.62 21.00,131.81 21.60,130.98 22.20,130.16 22.79,129.32 23.37,128.49 23.94,127.65 24.50,126.80 25.06,125.95 25.62,125.09 26.16,124.23 26.70,123.37 27.24,122.50 27.76,121.63 28.28,120.76 28.80,119.88 29.31,119.00 29.81,118.11 30.31,117.22 30.80,116.33 31.29,115.44 31.77,114.54 32.25,113.64 32.72,112.74 33.19,111.83 33.65,110.93 34.11,110.02 34.56,109.11 35.01,108.19 35.46,107.28 35.90,106.36 36.34,105.44 36.77,104.52 37.20,103.60 37.63,102.67 38.06,101.75 38.48,100.82 38.90,99.89 39.31,98.96 39.73,98.03 40.14,97.10 40.55,96.17 40.95,95.23 41.36,94.30 41.76,93.36 42.16,92.43 42.56,91.49 42.96,90.55 43.36,89.62 43.75,88.68 44.15,87.74 44.55,86.80 44.94,85.86 45.33,84.92 45.73,83.98 46.12,83.05 46.52,82.11 46.91,81.17 47.31,80.23 47.70,79.29 48.10,78.35 48.49,77.42 48.89,76.48 49.29,75.54 49.69,74.61 50.10,73.67 50.50,72.74 50.91,71.80 51.31,70.87 51.72,69.94 52.14,69.01 52.55,68.08">
        <lane id="1_in_0" index="0" speed="13.89" length="77.39" shape="8.34,139.31 9.03,138.60 9.70,137.90 10.36,137.19 11.01,136.48 11.65,135.76 12.29,135.03 12.92,134.29 13.55,133.55 14.16,132.80 14.77,132.04 15.37,131.28 15.97,130.51 16.56,129.73 17.14,128.95 17.72,128.17 18.29,127.37 18.85,126.57 19.41,125.77 19.96,124.96 20.50,124.15 21.04,123.33 21.57,122.50 22.10,121.67 22.62,120.84 23.14,120.00 23.65,119.16 24.15,118.31 24.65,117.46 25.14,116.61 25.63,115.75 26.12,114.89 26.59,114.02 27.07,113.15 27.54,112.28 28.00,111.40 28.46,110.52 28.92,109.64 29.37,108.76 29.82,107.87 30.26,106.98 30.70,106.08 31.14,105.18 31.57,104.28 32.00,103.38 32.43,102.48 32.85,101.57 33.27,100.66 33.69,99.75 34.10,98.84 34.52,97.92 34.93,97.01 35.34,96.09 35.74,95.17 36.15,94.24 36.55,93.32 36.95,92.39 37.35,91.47 37.75,90.54 38.15,89.61 38.54,88.68 38.94,87.74 39.33,86.81 39.73,85.88 40.12,84.94 40.51,84.00 40.91,83.07 41.30,82.13 41.70,81.19 42.09,80.25 42.49,79.31 42.88,78.37 43.28,77.43 43.68,76.48 44.08,75.54 44.48,74.60 44.88,73.66 45.28,72.71 45.35,72.54"/>
        <lane id="1_in_1" index="1" speed="13.89" length="77.39" shape="10.63,141.54 11.34,140.82 12.03,140.09 12.71,139.36 13.38,138.62 14.05,137.88 14.71,137.12 15.36,136.36 16.01,135.59 16.64,134.82 17.27,134.04 17.89,133.25 18.51,132.46 19.12,131.66 19.72,130.85 20.31,130.04 20.90,129.23 21.47,128.41 22.05,127.58 22.61,126.75 23.17,125.91 23.72,125.07 24.27,124.23 24.81,123.38 25.34,122.53 25.87,121.67 26.39,120.81 26.91,119.94 27.42,119.07 27.92,118.20 28.42,117.32 28.91,116.44 29.40,115.56 29.88,114.68 30.36,113.79 30.83,112.89 31.30,112.00 31.76,111.10 32.22,110.20 32.68,109.30 33.13,108.40 33.58,107.49 34.02,106.58 34.46,105.67 34.89,104.75 35.32,103.84 35.75,102.92 36.18,102.00 36.60,101.08 37.02,100.16 37.44,99.23 37.85,98.31 38.26,97.38 38.67,96.45 39.08,95.53 39.48,94.60 39.89,93.66 40.29,92.73 40.69,91.80 41.09,90.86 41.49,89.93 41.88,88.99 42.28,88.06 42.68,87.12 43.07,86.18 43.46,85.24 43.86,84.30 44.25,83.37 44.65,82.43 45.04,81.49 45.44,80.55 45.83,79.61 46.23,78.67 46.62,77.73 47.02,76.79 47.42,75.85 47.82,74.91 48.22,73.97 48.28,73.85"/>
    </edge>
    <edge id="1_out" from="center" to="1" priority="1" shape="52.55,68.08 52.14,69.01 51.72,69.94 51.31,70.87 50.91,71.80 50.50,72.74 50.10,73.67 49.69,74.61 49.29,75.54 48.89,76.48 48.49,77.42 48.10,78.35 47.70,79.29 47.31,80.23 46.91,81.17 46.52,82.11 46.12,83.05 45.73,83.98 45.33,84.92 44.94,85.86 44.55,86.80 44.15,87.74 43.75,88.68 43.36,89.62 42.96,90.55 42.56,91.49 42.16,92.43 41.76,93.36 41.36,94.30 40.95,95.23 40.55,96.17 40.14,97.10 39.73,98.03 39.31,98.96 38.90,99.89 38.48,100.82 38.06,101.75 37.63,102.67 37.20,103.60 36.77,104.52 36.34,105.44 35.90,106.36 35.46,107.28 35.01,108.19 34.56,109.11 34.11,110.02 33.65,110.93 33.19,111.83 32.72,112.74 32.25,113.64 31.77,114.54 31.29,115.44 30.80,116.33 30.31,117.22 29.81,118.11 29.31,119.00 28.80,119.88 28.28,120.76 27.76,121.63 27.24,122.50 26.70,123.37 26.16,124.23 25.62,125.09 25.06,125.95 24.50,126.80 23.94,127.65 23.37,128.49 22.79,129.32 22.20,130.16 21.60,130.98 21.00,131.81 20.39,132.62 19.78,133.43 19.15,134.24 18.52,135.04 17.88,135.83 17.24,136.62 16.58,137.40 15.92,138.17 15.25,138.94 14.57,139.69 13.88,140.45 13.19,141.19 12.49,141.93 11.78,142.66">
        <lane id="1_out_0" index="0" speed="13.89" length="80.22" shape="57.04,77.76 56.65,78.69 56.25,79.61 55.86,80.54 55.47,81.47 55.07,82.40 54.68,83.33 54.29,84.27 53.89,85.20 53.50,86.14 53.10,87.08 52.71,88.02 52.32,88.96 51.92,89.90 51.52,90.85 51.12,91.79 50.72,92.74 50.32,93.68 49.92,94.63 49.52,95.58 49.11,96.52 48.70,97.47 48.29,98.42 47.88,99.37 47.46,100.32 47.04,101.27 46.62,102.22 46.19,103.17 45.76,104.12 45.33,105.07 44.90,106.02 44.46,106.97 44.01,107.92 43.57,108.87 43.11,109.81 42.66,110.76 42.20,111.71 41.73,112.65 41.26,113.60 40.79,114.54 40.30,115.49 39.82,116.43 39.33,117.37 38.83,118.31 38.32,119.24 37.82,120.18 37.30,121.11 36.78,122.04 36.25,122.97 35.71,123.90 35.17,124.83 34.62,125.75 34.07,126.67 33.50,127.58 32.93,128.50 32.35,129.41 31.77,130.32 31.17,131.22 30.57,132.12 29.96,133.02 29.34,133.91 28.72,134.80 28.08,135.68 27.44,136.56 26.79,137.43 26.12,138.30 25.45,139.17 24.78,140.03 24.09,140.88 23.39,141.73 22.68,142.57 21.97,143.40 21.24,144.23 20.51,145.06 19.76,145.87 19.01,146.68 18.25,147.48 17.50,148.24"/>
        <lane id="1_out_1" index="1" speed="13.89" length="80.22" shape="54.12,76.46 53.71,77.43 53.31,78.36 52.91,79.29 52.52,80.22 52.12,81.16 51.73,82.09 51.34,83.03 50.94,83.97 50.55,84.90 50.15,85.84 49.76,86.78 49.36,87.72 48.97,88.66 48.57,89.60 48.18,90.55 47.78,91.49 47.38,92.43 46.98,93.37 46.57,94.32 46.17,95.26 45.76,96.20 45.35,97.15 44.94,98.09 44.53,99.03 44.11,99.97 43.70,100.92 43.27,101.86 42.85,102.80 42.42,103.74 41.99,104.68 41.56,105.62 41.12,106.56 40.68,107.50 40.23,108.43 39.78,109.37 39.32,110.30 38.86,111.23 38.40,112.17 37.93,113.10 37.46,114.03 36.98,114.95 36.49,115.88 36.01,116.80 35.51,117.72 35.01,118.64 34.50,119.56 33.99,120.47 33.47,121.38 32.95,122.29 32.42,123.20 31.88,124.10 31.33,125.00 30.78,125.90 30.22,126.79 29.66,127.68 29.09,128.57 28.51,129.45 27.92,130.33 27.32,131.20 26.72,132.07 26.11,132.94 25.49,133.80 24.86,134.66 24.23,135.51 23.59,136.35 22.93,137.20 22.27,138.03 21.61,138.86 20.93,139.68 20.24,140.50 19.55,141.31 18.85,142.11 18.13,142.91 17.41,143.70 16.68,144.48 15.94,145.26 15.21,146.01"/>
        <lane id="1_out_2" index="2" speed="13.89" length="80.22" shape="51.20,75.15 50.76,76.17 50.36,77.11 49.97,78.04 49.57,78.98 49.18,79.91 48.78,80.85 48.39,81.79 47.99,82.73 47.60,83.67 47.20,84.60 46.81,85.54 46.41,86.48 46.02,87.42 45.62,88.36 45.23,89.30 44.83,90.24 44.43,91.18 44.03,92.12 43.63,93.06 43.23,94.00 42.83,94.93 42.42,95.87 42.01,96.81 41.60,97.74 41.19,98.68 40.77,99.61 40.36,100.55 39.93,101.48 39.51,102.41 39.08,103.34 38.65,104.27 38.22,105.20 37.78,106.12 37.34,107.05 36.90,107.97 36.45,108.89 36.00,109.81 35.54,110.73 35.08,111.65 34.61,112.56 34.14,113.48 33.66,114.39 33.18,115.29 32.70,116.20 32.20,117.10 31.71,118.00 31.20,118.90 30.70,119.79 30.18,120.68 29.66,121.57 29.13,122.45 28.60,123.33 28.06,124.21 27.52,125.09 26.96,125.96 26.40,126.82 25.84,127.68 25.26,128.54 24.68,129.39 24.10,130.24 23.50,131.08 22.90,131.92 22.29,132.76 21.67,133.58 21.05,134.41 20.41,135.22 19.77,136.03 19.12,136.84 18.47,137.64 17.80,138.43 17.13,139.22 16.45,139.99 15.76,140.77 15.06,141.53 14.35,142.29 13.64,143.04 12.92,143.77"/>
    </edge>
    <edge id="2_in" from="2" to="center" priority="1" shape="0.00,0.00 0.99,0.19 1.98,0.41 2.96,0.67 3.93,0.96 4.89,1.28 5.84,1.63 6.78,2.01 7.70,2.42 8.61,2.86 9.51,3.32 10.40,3.81 11.27,4.33 12.13,4.87 12.97,5.43 13.80,6.01 14.61,6.62 15.40,7.24 16.19,7.88 16.95,8.55 17.70,9.23 18.43,9.92 19.15,10.64 19.85,11.36 20.54,12.11 21.22,12.86 21.87,13.63 22.52,14.41 23.15,15.21 23.76,16.01 24.36,16.82 24.95,17.65 25.52,18.48 26.09,19.32 26.63,20.17 27.17,21.03 27.70,21.89 28.21,22.76 28.72,23.64 29.21,24.52 29.70,25.41 30.18,26.31 30.64,27.20 31.10,28.10 31.56,29.01 32.00,29.92 32.44,30.83 32.87,31.74 33.30,32.66 33.73,33.58 34.14,34.50 34.56,35.43 34.97,36.35 35.38,37.27 35.79,38.20 36.20,39.13 36.60,40.05 37.01,40.98 37.42,41.91 37.83,42.83 38.23,43.76 38.65,44.68 39.06,45.61 39.48,46.53 39.90,47.45 40.33,48.37 40.76,49.28 41.19,50.20 41.64,51.11 42.09,52.01 42.54,52.92 43.01,53.82 43.48,54.71 43.96,55.60 44.45,56.49 44.95,57.36 45.46,58.24 45.98,59.11 46.52,59.97 47.06,60.82 47.62,61.66 48.19,62.50 48.77,63.33 49.37,64.15 49.97,64.96 50.60,65.75 51.23,66.54 51.89,67.31 52.55,68.08">
        <lane id="2_in_0" index="0" speed="13.89" length="85.08" shape="1.50,-7.86 2.63,-7.64 3.88,-7.36 5.12,-7.03 6.34,-6.67 7.55,-6.27 8.73,-5.83 9.90,-5.35 11.05,-4.84 12.18,-4.30 13.28,-3.73 14.37,-3.13 15.43,-2.50 16.47,-1.85 17.49,-1.17 18.49,-0.47 19.47,0.26 20.42,1.01 21.35,1.77 22.26,2.56 23.14,3.36 24.01,4.18 24.85,5.02 25.67,5.87 26.47,6.73 27.24,7.60 28.00,8.49 28.74,9.38 29.46,10.29 30.16,11.20 30.84,12.13 31.50,13.05 32.14,13.99 32.77,14.93 33.38,15.87 33.98,16.82 34.56,17.78 35.12,18.73 35.68,19.69 36.21,20.65 36.74,21.61 37.25,22.57 37.75,23.54 38.24,24.50 38.73,25.46 39.20,26.42 39.66,27.38 40.11,28.34 40.56,29.30 41.00,30.25 41.43,31.20 41.86,32.15 42.28,33.10 42.70,34.04 43.11,34.98 43.52,35.91 43.93,36.84 44.34,37.77 44.74,38.69 45.14,39.60 45.55,40.52 45.95,41.42 46.35,42.32 46.76,43.21 47.16,44.10 47.57,44.98 47.98,45.85 48.40,46.72 48.82,47.58 49.24,48.43 49.67,49.28 50.10,50.11 50.53,50.94 50.98,51.76 51.43,52.57 51.88,53.37 52.34,54.16 52.81,54.94 53.29,55.71 53.77,56.47 54.22,57.14"/>
        <lane id="2_in_1" index="1" speed="13.89" length="85.08" shape="0.90,-4.72 1.97,-4.51 3.12,-4.25 4.26,-3.95 5.38,-3.62 6.48,-3.25 7.58,-2.84 8.65,-2.41 9.71,-1.94 10.75,-1.44 11.78,-0.91 12.78,-0.35 13.77,0.23 14.74,0.84 15.68,1.47 16.61,2.12 17.52,2.80 18.41,3.50 19.28,4.22 20.13,4.95 20.96,5.71 21.78,6.48 22.57,7.26 23.34,8.07 24.10,8.88 24.83,9.71 25.55,10.55 26.25,11.40 26.93,12.26 27.60,13.13 28.25,14.00 28.88,14.89 29.50,15.79 30.10,16.69 30.68,17.59 31.26,18.51 31.81,19.42 32.36,20.35 32.89,21.27 33.41,22.20 33.92,23.13 34.42,24.07 34.91,25.00 35.39,25.94 35.86,26.88 36.32,27.82 36.77,28.76 37.22,29.70 37.66,30.64 38.09,31.58 38.52,32.52 38.94,33.46 39.36,34.40 39.77,35.33 40.18,36.27 40.59,37.20 41.00,38.13 41.41,39.05 41.81,39.98 42.22,40.90 42.62,41.81 43.03,42.73 43.44,43.63 43.85,44.54 44.26,45.44 44.67,46.34 45.09,47.23 45.52,48.11 45.94,48.99 46.38,49.86 46.82,50.73 47.26,51.59 47.71,52.45 48.17,53.29 48.64,54.13 49.11,54.97 49.59,55.79 50.08,56.60 50.58,57.41 51.09,58.21 51.61,58.99 51.79,59.26"/>
        <lane id="2_in_2" index="2" speed="13.89" length="85.08" shape="0.30,-1.57 1.32,-1.38 2.36,-1.14 3.39,-0.87 4.41,-0.57 5.42,-0.23 6.42,0.14 7.40,0.54 8.37,0.97 9.33,1.43 10.27,1.91 11.19,2.42 12.10,2.96 13.00,3.52 13.87,4.11 14.74,4.72 15.58,5.34 16.41,5.99 17.22,6.66 18.01,7.35 18.79,8.05 19.55,8.77 20.29,9.51 21.02,10.26 21.73,11.03 22.42,11.81 23.10,12.60 23.76,13.41 24.41,14.22 25.04,15.05 25.66,15.88 26.26,16.73 26.85,17.58 27.42,18.44 27.98,19.31 28.53,20.19 29.07,21.07 29.60,21.96 30.11,22.85 30.61,23.75 31.11,24.65 31.59,25.56 32.07,26.47 32.53,27.38 32.99,28.30 33.44,29.22 33.88,30.14 34.32,31.06 34.75,31.99 35.18,32.92 35.60,33.84 36.02,34.77 36.43,35.70 36.85,36.63 37.26,37.56 37.66,38.48 38.07,39.41 38.48,40.34 38.88,41.26 39.29,42.19 39.70,43.11 40.11,44.03 40.52,44.95 40.93,45.87 41.35,46.78 41.77,47.69 42.20,48.60 42.63,49.50 43.07,50.40 43.52,51.30 43.97,52.19 44.42,53.07 44.89,53.96 45.36,54.83 45.85,55.70 46.34,56.57 46.84,57.42 47.35,58.27 47.87,59.11 48.40,59.95 48.95,60.77 49.36,61.38"/>
    </edge>
    <edge id="2_out" from="center" to="2" priority="1" shape="52.55,68.08 51.89,67.31 51.23,66.54 50.60,65.75 49.97,64.96 49.37,64.15 48.77,63.33 48.19,62.50 47.62,61.66 47.06,60.82 46.52,59.97 45.98,59.11 45.46,58.24 44.95,57.36 44.45,56.49 43.96,55.60 43.48,54.71 43.01,53.82 42.54,52.92 42.09,52.01 41.64,51.11 41.19,50.20 40.76,49.28 40.33,48.37 39.90,47.45 39.48,46.53 39.06,45.61 38.65,44.68 38.23,43.76 37.83,42.83 37.42,41.91 37.01,40.98 36.60,40.05 36.20,39.13 35.79,38.20 35.38,37.27 34.97,36.35 34.56,35.43 34.14,34.50 33.73,33.58 33.30,32.66 32.87,31.74 32.44,30.83 32.00,29.92 31.56,29.01 31.10,28.10 30.64,27.20 30.18,26.31 29.70,25.41 29.21,24.52 28.72,23.64 28.21,22.76 27.70,21.89 27.17,21.03 26.63,20.17 26.09,19.32 25.52,18.48 24.95,17.65 24.36,16.82 23.76,16.01 23.15,15.21 22.52,14.41 21.87,13.63 21.22,12.86 20.54,12.11 19.85,11.36 19.15,10.64 18.43,9.92 17.70,9.23 16.95,8.55 16.19,7.88 15.40,7.24 14.61,6.62 13.80,6.01 12.97,5.43 12.13,4.87 11.27,4.33 10.40,3.81 9.51,3.32 8.61,2.86 7.70,2.42 6.78,2.01 5.84,1.63 4.89,1.28 3.93,0.96 2.96,0.67 1.98,0.41 0.99,0.19 0.00,0.00">
        <lane id="2_out_0" index="0" speed="13.89" length="79.77" shape="44.51,65.61 44.24,65.23 43.63,64.33 43.03,63.43 42.45,62.52 41.89,61.61 41.33,60.69 40.79,59.76 40.27,58.84 39.75,57.91 39.25,56.97 38.75,56.04 38.27,55.10 37.79,54.16 37.33,53.22 36.87,52.28 36.42,51.34 35.98,50.40 35.54,49.46 35.11,48.52 34.68,47.58 34.26,46.64 33.85,45.71 33.43,44.77 33.02,43.84 32.62,42.91 32.21,41.98 31.80,41.06 31.40,40.13 30.99,39.22 30.59,38.30 30.18,37.39 29.77,36.48 29.36,35.58 28.95,34.68 28.53,33.79 28.11,32.90 27.68,32.02 27.25,31.14 26.82,30.27 26.38,29.40 25.93,28.54 25.48,27.69 25.01,26.85 24.55,26.01 24.07,25.18 23.58,24.36 23.09,23.55 22.59,22.75 22.07,21.96 21.55,21.18 21.02,20.40 20.48,19.64 19.92,18.89 19.36,18.15 18.78,17.43 18.20,16.72 17.60,16.02 16.99,15.33 16.37,14.66 15.74,14.01 15.09,13.37 14.43,12.74 13.77,12.14 13.09,11.55 12.40,10.98 11.69,10.43 10.98,9.90 10.25,9.39 9.52,8.90 8.77,8.43 8.02,7.98 7.25,7.56 6.48,7.16 5.69,6.78 4.90,6.43 4.10,6.11 3.30,5.81 2.48,5.54 1.66,5.29 0.84,5.08 0.01,4.89 -0.90,4.72"/>
        <lane id="2_out_1" index="1" speed="13.89" length="79.77" shape="46.93,63.50 46.87,63.41 46.29,62.55 45.72,61.69 45.16,60.82 44.62,59.94 44.09,59.05 43.57,58.16 43.06,57.27 42.56,56.37 42.07,55.46 41.59,54.56 41.12,53.64 40.65,52.73 40.20,51.81 39.75,50.89 39.31,49.97 38.88,49.04 38.45,48.12 38.02,47.19 37.60,46.26 37.19,45.34 36.77,44.41 36.36,43.48 35.95,42.55 35.55,41.62 35.14,40.70 34.73,39.77 34.33,38.84 33.92,37.92 33.51,37.00 33.10,36.08 32.69,35.16 32.27,34.25 31.85,33.33 31.43,32.43 31.00,31.52 30.56,30.62 30.12,29.72 29.68,28.83 29.22,27.94 28.76,27.05 28.29,26.17 27.81,25.30 27.33,24.43 26.83,23.57 26.33,22.72 25.81,21.87 25.29,21.03 24.75,20.20 24.20,19.38 23.64,18.57 23.07,17.76 22.48,16.97 21.88,16.19 21.27,15.42 20.65,14.66 20.01,13.91 19.36,13.18 18.69,12.46 18.01,11.76 17.32,11.07 16.61,10.40 15.89,9.74 15.15,9.11 14.40,8.49 13.64,7.89 12.86,7.31 12.06,6.75 11.26,6.21 10.44,5.69 9.61,5.20 8.76,4.73 7.90,4.29 7.03,3.88 6.15,3.49 5.26,3.12 4.36,2.79 3.45,2.48 2.53,2.21 1.60,1.97 0.67,1.76 -0.30,1.57"/>
    </edge>

    <junction id="0" type="dead_end" x="103.52" y="31.05" incLanes="0_out_0 0_out_1" intLanes="" shape="103.52,31.05 98.65,26.90 103.52,31.05"/>
    <junction id="1" type="dead_end" x="11.78" y="142.66" incLanes="1_out_0 1_out_1 1_out_2" intLanes="" shape="11.78,142.66 18.65,149.36 11.78,142.66"/>
    <junction id="2" type="dead_end" x="0.00" y="0.00" incLanes="2_out_0 2_out_1" intLanes="" shape="0.00,-0.00 1.80,-9.43 -1.19,6.29"/>
    <junction id="center" type="priority" x="52.55" y="68.08" incLanes="0_in_0 2_in_0 2_in_1 2_in_2 1_in_0 1_in_1" intLanes=":center_0_0 :center_9_0 :center_2_0 :center_2_1 :center_4_0 :center_4_1 :center_6_0 :center_7_0 :center_7_1" shape="66.72,64.40 62.57,55.71 62.16,55.94 61.95,56.05 61.75,56.15 61.55,56.25 61.36,56.35 61.16,56.44 60.97,56.52 60.79,56.60 60.60,56.68 60.42,56.75 60.24,56.82 60.06,56.89 59.89,56.95 59.72,57.00 59.55,57.05 59.39,57.10 59.22,57.14 59.06,57.18 58.91,57.21 58.75,57.24 58.60,57.27 58.45,57.29 58.31,57.30 58.17,57.31 58.03,57.32 57.89,57.32 57.75,57.32 57.62,57.32 57.49,57.30 57.37,57.29 57.24,57.27 57.12,57.25 57.01,57.22 56.89,57.19 56.78,57.15 56.67,57.11 56.56,57.06 56.46,57.01 56.36,56.96 56.26,56.90 56.16,56.84 56.07,56.77 55.98,56.70 55.89,56.62 55.81,56.54 55.73,56.46 55.65,56.37 55.57,56.27 55.50,56.18 55.43,56.07 43.30,66.67 43.43,66.87 43.56,67.07 43.61,67.17 43.67,67.26 43.73,67.36 43.78,67.46 43.83,67.56 43.88,67.66 43.92,67.76 43.96,67.86 44.01,67.96 44.04,68.06 44.08,68.16 44.11,68.27 44.15,68.37 44.18,68.47 44.20,68.57 44.23,68.67 44.25,68.77 44.27,68.87 44.29,68.98 44.31,69.08 44.32,69.18 44.33,69.28 44.34,69.38 44.35,69.49 44.35,69.59 44.36,69.69 44.36,69.80 44.36,69.90 44.35,70.00 44.35,70.11 44.34,70.21 44.33,70.31 44.31,70.42 44.30,70.52 44.28,70.63 44.26,70.73 44.24,70.84 44.21,70.94 44.19,71.05 44.16,71.15 44.13,71.26 44.09,71.36 44.06,71.47 44.02,71.57 43.98,71.68 43.94,71.79 43.89,71.89 58.51,78.41 58.87,77.54 59.03,77.13 59.18,76.72 59.32,76.33 59.45,75.95 59.57,75.58 59.68,75.22 59.79,74.86 59.89,74.52 59.99,74.18 60.08,73.85 60.25,73.22 60.56,72.04 60.71,71.49 60.78,71.22 60.86,70.96 60.94,70.70 61.02,70.45 61.11,70.20 61.20,69.95 61.29,69.71 61.39,69.48 61.50,69.24 61.61,69.01 61.73,68.79 61.86,68.56 62.00,68.34 62.15,68.12 62.30,67.90 62.47,67.68 62.65,67.47 62.84,67.25 63.05,67.03 63.26,66.82 63.49,66.60 63.74,66.39 64.00,66.17 64.28,65.96 64.57,65.74 64.88,65.52 65.21,65.30 65.56,65.08 65.92,64.85 66.31,64.63">
        <request index="0" response="000000000" foes="000000000" cont="0"/>
        <request index="1" response="110000000" foes="110110000" cont="1"/>
        <request index="2" response="110000000" foes="110000000" cont="0"/>
        <request index="3" response="110000000" foes="110000000" cont="0"/>
        <request index="4" response="110000010" foes="110000010" cont="0"/>
        <request index="5" response="110000010" foes="110000010" cont="0"/>
        <request index="6" response="000000000" foes="000000000" cont="0"/>
        <request index="7" response="000000000" foes="000111110" cont="0"/>
        <request index="8" response="000000000" foes="000111110" cont="0"/>
    </junction>

    <junction id=":center_9_0" type="internal" x="57.63" y="66.51" incLanes=":center_1_0 1_in_0 1_in_1" intLanes=":center_4_0 :center_4_1 :center_7_0 :center_7_1"/>

    <connection from="0_in" to="1_out" fromLane="0" toLane="0" via=":center_0_0" dir="s" state="M"/>
    <connection from="0_in" to="2_out" fromLane="0" toLane="1" via=":center_1_0" dir="l" state="m"/>
    <connection from="1_in" to="2_out" fromLane="0" toLane="0" via=":center_6_0" dir="r" state="M"/>
    <connection from="1_in" to="0_out" fromLane="0" toLane="0" via=":center_7_0" dir="s" state="M"/>