<connections>
    <connection from="0" to="1" fromLane="0" toLane="0"/>
</connections>