<nodes><node id="center" x="0.0" y="0.0" z="0.0" type="priority" /><node id="0" x="50.96807064562169" y="-37.03047089442581" z="0.0" /><node id="1" x="-40.77561462627093" y="74.58115882613946" z="0.0" /><node id="2" x="-52.55172945154557" y="-68.0758087109625" z="0.0" /></nodes>