<edges><edge id="0_in" from="0" to="center" numLanes="1" speed="13.889" priority="2" shape="50.96807064562169,-37.03047089442582 50.30434550837808,-36.250717657100154 49.633210933645636,-35.47733243704979 48.954795663613446,-34.71032579882163 48.26922740342034,-33.949705810482854 47.57663279573408,-33.195478087288556 46.877137396604205,-32.44764583520667 46.17086565256805,-31.70620989427777 45.45794087898881,-30.97116878178828 44.738485239605275,-30.242518735236217 44.01261972727196,-29.52025375506967 43.2804641458688,-28.804365647178933 42.54213709335947,-28.09484406512392 41.797755945977116,-27.391676552079538 41.04743684351668,-26.694848582482237 40.29129467571278,-26.004343603361754 39.529443069681776,-25.320143075342926 38.76199437840796,-24.6422265133033 37.98905967025193,-23.970571526672458 37.210748719461264,-23.305153859360402 36.42716999766237,-22.64594742930268 35.63843066631286,-21.992924367610293 34.84463657009434,-21.346055057313997 34.04589223122489,-20.70530817169228 33.24230084467135,-20.070650712173627 32.433964274241106,-19.442048045803958 31.62098304953364,-18.81946394227096 30.803456363732288,-18.20286061047748 29.981482072216316,-17.592198734656876 29.155156691974266,-16.98743751002354 28.324575401799304,-16.388534677952844 27.48983204324782,-15.795446560684805 26.651019122342404,-15.208128095546684 25.808227812000574,-14.626532868689864 24.961547955171422,-14.050613148337344 24.11106806866181,-13.480319917538509 23.25687534763431,-12.915602906427775 22.399055670759697,-12.35641062398534 21.537693606006222,-11.802690389297442 20.672872417048914,-11.254388362315169 19.80467407028217,-10.711449574110024 18.933179242418966,-10.173817956626344 18.058467328660434,-9.641436371929835 17.180616451419787,-9.114246640952295 16.299703469585154,-8.59218957173357 15.415803988305399,-8.075204987161055 14.528992369284119,-7.5632317522084875 13.639341741566795,-7.05620780067537 12.746924012806282,-6.554070161429152 11.851809880992754,-6.056754984152583 10.954068846633263,-5.564197564598494 10.053769225368036,-5.076332369355548 9.150978161009114,-4.59309306012765 8.245761638988647,-4.11441251753098 7.338184500203546,-3.6402228644123227 6.428310455244116,-3.1704554886928378 5.516202098993759,-2.705041065741568 4.601920925587976,-2.2439095802836206 3.6855273437207714,-1.786990347847464 2.767080692286399,-1.3342120357569698 1.8466392563456964,-0.8855026836731881 0.9242602834054168,-0.440789723691438 0.0,-7.105427357601002e-15" /><edge id="0_out" from="center" to="0" numLanes="2" speed="13.889" priority="2" shape="0.0,0.0 0.9242602834054053,-0.4407897236914285 1.8466392563456813,-0.8855026836731774 2.7670806922863966,-1.334212035756961 3.685527343720761,-1.7869903478474523 4.601920925587972,-2.2439095802836 5.516202098993744,-2.705041065741548 6.4283104552441,-3.1704554886928378 7.33818450020354,-3.640222864412314 8.245761638988627,-4.114412517530971 9.150978161009116,-4.5930930601276305 10.053769225368024,-5.076332369355541 10.954068846633255,-5.5641975645984925 11.851809880992741,-6.0567549841525725 12.74692401280628,-6.554070161429145 13.639341741566781,-7.056207800675351 14.528992369284115,-7.563231752208474 15.415803988305392,-8.075204987161046 16.299703469585147,-8.592189571733556 17.180616451419784,-9.114246640952288 18.058467328660424,-9.641436371929823 18.933179242418962,-10.17381795662634 19.804674070282157,-10.71144957411001 20.672872417048893,-11.25438836231516 21.53769360600621,-11.802690389297446 22.399055670759697,-12.356410623985315 23.256875347634296,-12.915602906427758 24.111068068661798,-13.4803199175385 24.961547955171415,-14.05061314833734 25.808227812000563,-14.626532868689843 26.6510191223424,-15.208128095546675 27.489832043247816,-15.795446560684795 28.32457540179929,-16.388534677952826 29.155156691974252,-16.987437510023526 29.981482072216313,-17.59219873465687 30.80345636373228,-18.202860610477476 31.62098304953362,-18.819463942270943 32.43396427424109,-19.442048045803947 33.242300844671355,-20.070650712173617 34.04589223122489,-20.705308171692273 34.84463657009433,-21.34605505731399 35.63843066631285,-21.992924367610282 36.427169997662354,-22.645947429302666 37.21074871946126,-23.305153859360402 37.98905967025193,-23.970571526672448 38.76199437840795,-24.64222651330328 39.52944306968176,-25.320143075342916 40.29129467571276,-26.00434360336174 41.04743684351667,-26.694848582482223 41.797755945977116,-27.391676552079534 42.54213709335947,-28.09484406512391 43.280464145868784,-28.80436564717892 44.01261972727195,-29.520253755069664 44.73848523960527,-30.242518735236203 45.45794087898879,-30.971168781788272 46.17086565256802,-31.706209894277755 46.87713739660418,-32.44764583520664 47.57663279573407,-33.19547808728854 48.26922740342035,-33.949705810482854 48.95479566361343,-34.710325798821614 49.633210933645636,-35.47733243704979 50.30434550837808,-36.25071765710015 50.96807064562169,-37.03047089442582" /><edge id="1_in" from="1" to="center" numLanes="2" speed="13.889" priority="1" shape="-40.77561462627094,74.58115882613946 -40.0645920638981,73.85219079664789 -39.36176464177656,73.11531807125681 -38.667094430440244,72.37075013094015 -37.98053861060505,71.6186932560052 -37.302049612869496,70.85935049510846 -36.63157525554237,70.09292163898662 -35.96905888052524,69.31960319876589 -35.31443948718356,68.53958838871353 -34.66765186414635,67.75306711329779 -34.028626718979865,66.96022595842294 -33.39729080568655,66.16124818670842 -32.77356704998561,65.35631373668251 -32.15737467233717,64.54559922576298 -31.548629308676787,63.729277956899 -30.947243128831943,62.907519928750546 -30.353124952597135,62.08049184928396 -29.766180363448505,61.248357152663985 -29.186311819883446,60.41127601932554 -28.613418764374902,59.56940539910998 -28.047397729933998,58.72289903735359 -27.48814244427895,57.87190750381822 -26.935543931611456,57.01657822435625 -26.38949061200593,56.15705551520473 -25.849868398420043,55.29348061980592 -25.31656079133866,54.42599174805398 -24.78944897106631,53.55472411787012 -24.26841188768643,52.679809999010644 -23.75332634870873,51.80137875901564 -23.24406710442853,50.91955691120758 -22.74050693102506,50.034468164652466 -22.24251671142779,49.14623347599799 -21.749965513982755,48.25497110310603 -21.26272066895294,47.360796660399146 -20.78064784288904,46.463823175843096 -20.303611110909163,45.56416114948972 -19.83147302692797,44.661918613507225 -19.364094691877618,43.75720119362671 -18.90133581996488,42.85011217193662 -18.44305480301035,41.94075255095847 -17.989108772917444,41.02922111893983 -17.53935366232036,40.115614516302614 -17.093644263461652,39.20002730318645 -16.651834285351494,38.28255202802955 -16.213776409262064,37.36327929713089 -15.77932234261155,36.442297845139855 -15.348322871293636,35.519694606421304 -14.920627910509392,34.59555478724538 -14.496086554159263,33.66996193875401 -14.074547122854323,32.7429980306566 -13.655857210606367,31.814743525610297 -13.239863730257454,30.88527745424031 -12.826412957710534,29.954677490758876 -12.415350575022977,29.023020029141215 -12.006521712426135,28.090380259819398 -11.599770989334228,27.15683224685592 -11.19494255440658,26.22244900555942 -10.791880124727964,25.28730258050718 -10.390427024171895,24.35146412393911 -9.990426221012516,23.41500397448909 -9.591720364851074,22.477991736221206 -9.194151822922993,21.540496357938054 -8.79756271585256,20.602586212729605 -8.401794952921783,19.66432917773217 -8.006690266920799,18.725792714066642 -7.612090248646901,17.78704394692651 -7.217836381120172,16.848149745786095 -6.823770073583077,15.90917680470006 -6.429732695351795,14.970191722665255 -6.035565609587415,14.0312610840163 -5.641110207054602,13.092451538826417 -5.246207939935971,12.153829883284864 -4.850700355769625,11.215463140022536 -4.454429131578223,10.277418638356764 -4.057236108256745,9.33976409442667 -3.658963325286983,8.402567691189404 -3.2594530558460235,7.4658981582480095 -2.8585478423759056,6.529824851480399 -2.4560905326815288,5.594417832439106 -2.0519243166234986,4.659747947490416 -1.645892763472439,3.7258869066605484 -1.2378398599905935,2.7929073621568534 -0.8276100493065357,1.8608829865295746 -0.41504827064841265,0.9298885504400971 4.263256414560601e-14,1.4210854715202004e-14" /><edge id="1_out" from="center" to="1" numLanes="3" speed="13.889" priority="1" shape="0.0,0.0 -0.4150482706484277,0.9298885504400761 -0.8276100493065673,1.8608829865295573 -1.237839859990622,2.7929073621568383 -1.6458927634724658,3.725886906660533 -2.0519243166235475,4.659747947490378 -2.456090532681533,5.594417832439103 -2.8585478423759216,6.529824851480379 -3.2594530558460586,7.465898158247991 -3.6589633252870137,8.402567691189391 -4.057236108256775,9.33976409442665 -4.45442913157826,10.277418638356746 -4.850700355769664,11.215463140022516 -5.246207939935997,12.153829883284857 -5.641110207054632,13.092451538826403 -6.035565609587434,14.031261084016288 -6.42973269535182,14.970191722665234 -6.823770073583101,15.909176804700039 -7.217836381120201,16.848149745786074 -7.612090248646924,17.787043946926495 -8.006690266920831,18.72579271406664 -8.40179495292183,19.664329177732156 -8.797562715852589,20.60258621272959 -9.194151822923018,21.540496357938032 -9.591720364851103,22.477991736221192 -9.990426221012557,23.415003974489064 -10.390427024171924,24.351464123939095 -10.791880124727989,25.287302580507184 -11.194942554406596,26.222449005559394 -11.599770989334239,27.156832246855892 -12.006521712426151,28.09038025981938 -12.41535057502299,29.02302002914119 -12.826412957710549,29.954677490758872 -13.239863730257474,30.885277454240303 -13.655857210606378,31.81474352561027 -14.074547122854344,32.74299803065661 -14.496086554159277,33.66996193875399 -14.920627910509406,34.59555478724537 -15.348322871293659,35.51969460642128 -15.779322342611565,36.44229784513984 -16.21377640926208,37.36327929713087 -16.651834285351516,38.28255202802954 -17.09364426346167,39.200027303186445 -17.53935366232038,40.11561451630261 -17.989108772917458,41.02922111893982 -18.44305480301036,41.94075255095846 -18.901335819964896,42.85011217193662 -19.36409469187763,43.757201193626706 -19.831473026927977,44.66191861350721 -20.303611110909173,45.56416114948971 -20.780647842889042,46.463823175843075 -21.262720668952955,47.360796660399146 -21.749965513982776,48.25497110310604 -22.242516711427793,49.14623347599797 -22.740506931025074,50.034468164652466 -23.244067104428538,50.91955691120758 -23.753326348708732,51.80137875901563 -24.268411887686444,52.679809999010644 -24.789448971066314,53.554724117870116 -25.316560791338663,54.425991748053974 -25.84986839842005,55.293480619805905 -26.389490612005936,56.15705551520473 -26.935543931611456,57.016578224356245 -27.48814244427896,57.87190750381822 -28.047397729934005,58.722899037353585 -28.613418764374902,59.569405399109975 -29.186311819883453,60.41127601932555 -29.76618036344851,61.248357152663985 -30.35312495259714,62.08049184928396 -30.94724312883195,62.907519928750546 -31.548629308676794,63.729277956899004 -32.15737467233718,64.54559922576298 -32.77356704998561,65.35631373668251 -33.397290805686545,66.16124818670842 -34.028626718979865,66.96022595842292 -34.667651864146364,67.7530671132978 -35.31443948718357,68.53958838871353 -35.969058880525246,69.31960319876589 -36.63157525554239,70.09292163898662 -37.3020496128695,70.85935049510844 -37.98053861060506,71.61869325600522 -38.66709443044025,72.37075013094017 -39.36176464177657,73.11531807125682 -40.064592063898104,73.85219079664789 -40.77561462627094,74.58115882613946" /><edge id="2_in" from="2" to="center" numLanes="3" speed="13.889" priority="1" shape="-52.551729451545526,-68.07580871096253 -51.557641015146665,-67.8863246910504 -50.57067595278525,-67.66267394470752 -49.591847546515446,-67.40573377147054 -48.62209738500501,-67.11640442612199 -47.66229634897893,-66.79560496421286 -46.71324577832419,-66.4442692999984 -45.77567880151361,-66.06334247881551 -44.850261808762795,-65.65377716470206 -43.937596051133546,-65.21653034293729 -43.03821934862766,-64.75256023616537 -42.152607891170604,-64.26282343184589 -41.28117811725642,-63.74827221795598 -40.42428865590722,-63.20985212313894 -39.58224231848506,-62.64849965685684 -38.755288127777405,-62.06514024454808 -37.943623372652446,-61.46068635231573 -37.1473956774437,-60.836035795271705 -36.36670507607137,-60.1920702233313 -35.60160608173579,-59.52965377798783 -34.85210974382416,-58.849631913393026 -34.11818568445318,-58.15283037492083 -33.399764107824254,-57.4400543282969 -32.69673777629366,-56.71208763232628 -32.008963947756214,-55.96969224824705 -31.33626626960604,-55.213607778770154 -30.67843662517168,-54.444551129933636 -30.035236929125183,-53.6632162889986 -29.406400868934224,-52.87027421174015 -28.791635589965274,-52.066372812636516 -28.190623322352316,-51.252137051630555 -27.603022948221266,-50.42816911132505 -27.02847150830642,-49.595048658676035 -26.466585647410337,-48.753333185462424 -25.916962998546634,-47.90355842203296 -25.379183505964278,-47.0462388190621 -24.852810687585286,-46.18186809228003 -24.33739283769488,-45.31091982537957 -23.83246417100665,-44.433848126539445 -23.337545909485016,-43.55108833424039 -22.85214731354549,-42.6630577682826 -22.37576665947031,-41.77015652214378 -21.907892165074983,-40.87276829303913 -21.44800286584089,-39.971261246261996 -20.995569443890442,-39.065988910592644 -20.55005501232879,-38.15729110176235 -20.110915857606052,-37.24549487115043 -19.677602142671965,-36.33091547707143 -19.24955857379893,-35.41385737617781 -18.826225034041748,-34.49461523266057 -18.407037186383583,-33.57347494307412 -17.991427049688184,-32.65071467474283 -17.578823550639832,-31.726605915825516 -17.168653054904688,-30.801414535217354 -16.76033988079068,-29.87540185056045 -16.353306798719558,-28.948825702709584 -15.946975519852714,-28.02194153506219 -15.54076717723418,-27.095003476208575 -15.134102802828615,-26.168265424391727 -14.726403803839943,-25.241982132282857 -14.31709244169793,-24.316410290583434 -13.905592317094616,-23.391809608951313 -13.491328864440845,-22.468443892723464 -13.07372985909479,-21.546582113865718 -12.652225940688751,-20.626499474524465 -12.226251155847663,-19.7084784614854 -11.795243523552834,-18.792809889759177 -11.358645626355198,-17.87979393341608 -10.915905230585452,-16.969741141679123 -10.466475938641977,-16.062973438159 -10.009817876360437,-15.159825100976235 -9.545398418381588,-14.260643721363827 -9.072692954335203,-13.365791138180576 -8.591185698545573,-12.475644345590318 -8.10037054583951,-11.590596370976073 -7.599751975898272,-10.711057119963016 -7.088846008438338,-9.8374541852182 -6.5671812113359564,-8.970233615481803 -6.034299763618755,-8.109860641064188 -5.489758575039751,-7.256820351815811 -4.933130463719742,-6.411618323345628 -4.364005393094125,-5.574781187027895 -3.7819917691256464,-4.7468571391014365 -3.1867177984492585,-3.928416383926148 -2.577832907792086,-3.120051506228421 -1.9550092246638187,-2.3223777669327887 -1.31794311893686,-1.5360333169520715 -0.6663568045331232,-0.7616793230895951 -2.842170943040401e-14,1.4210854715202004e-14" /><edge id="2_out" from="center" to="2" numLanes="2" speed="13.889" priority="1" shape="0.0,0.0 -0.6663568045330889,-0.7616793230895992 -1.3179431189368287,-1.5360333169520761 -1.9550092246637996,-2.322377766932816 -2.577832907792086,-3.120051506228432 -3.186717798449224,-3.928416383926146 -3.781991769125622,-4.746857139101451 -4.364005393094119,-5.574781187027927 -4.933130463719747,-6.411618323345623 -5.489758575039735,-7.256820351815817 -6.0342997636187565,-8.109860641064184 -6.567181211335946,-8.97023361548182 -7.088846008438316,-9.83745418521822 -7.599751975898263,-10.711057119963026 -8.100370545839516,-11.59059637097606 -8.591185698545544,-12.475644345590315 -9.072692954335183,-13.365791138180592 -9.545398418381561,-14.26064372136383 -10.009817876360406,-15.15982510097624 -10.466475938641961,-16.062973438159002 -10.915905230585434,-16.969741141679126 -11.35864562635518,-17.879793933416085 -11.795243523552825,-18.792809889759173 -12.226251155847653,-19.70847846148541 -12.652225940688737,-20.626499474524476 -13.073729859094785,-21.54658211386571 -13.491328864440831,-22.468443892723457 -13.9055923170946,-23.391809608951306 -14.317092441697918,-24.316410290583445 -14.726403803839933,-25.24198213228288 -15.134102802828599,-26.168265424391734 -15.540767177234175,-27.095003476208586 -15.946975519852707,-28.02194153506219 -16.353306798719558,-28.948825702709595 -16.760339880790678,-29.875401850560458 -17.16865305490468,-30.80141453521735 -17.57882355063982,-31.72660591582551 -17.99142704968817,-32.65071467474284 -18.40703718638357,-33.573474943074125 -18.826225034041737,-34.49461523266059 -19.249558573798925,-35.41385737617781 -19.67760214267196,-36.33091547707143 -20.110915857606052,-37.24549487115043 -20.550055012328777,-38.15729110176235 -20.995569443890425,-39.06598891059265 -21.44800286584088,-39.971261246262 -21.90789216507499,-40.87276829303913 -22.375766659470298,-41.77015652214378 -22.852147313545498,-42.6630577682826 -23.33754590948501,-43.55108833424039 -23.83246417100664,-44.43384812653945 -24.33739283769488,-45.310919825379564 -24.852810687585286,-46.181868092280034 -25.37918350596428,-47.0462388190621 -25.916962998546634,-47.903558422032965 -26.466585647410337,-48.753333185462424 -27.02847150830642,-49.59504865867605 -27.603022948221263,-50.42816911132506 -28.190623322352312,-51.25213705163056 -28.791635589965278,-52.06637281263651 -29.40640086893423,-52.87027421174015 -30.035236929125194,-53.663216288998605 -30.67843662517169,-54.44455112993363 -31.33626626960603,-55.21360777877014 -32.008963947756214,-55.96969224824706 -32.69673777629366,-56.71208763232627 -33.399764107824254,-57.4400543282969 -34.11818568445317,-58.152830374920825 -34.85210974382416,-58.84963191339301 -35.601606081735795,-59.529653777987825 -36.366705076071376,-60.1920702233313 -37.1473956774437,-60.83603579527171 -37.943623372652446,-61.46068635231575 -38.755288127777405,-62.06514024454808 -39.58224231848505,-62.64849965685684 -40.42428865590723,-63.20985212313895 -41.281178117256424,-63.74827221795599 -42.152607891170604,-64.26282343184589 -43.03821934862767,-64.75256023616537 -43.93759605113356,-65.2165303429373 -44.8502618087628,-65.65377716470206 -45.77567880151362,-66.0633424788155 -46.71324577832421,-66.44426929999838 -47.66229634897895,-66.79560496421284 -48.62209738500502,-67.116404426122 -49.591847546515446,-67.40573377147055 -50.57067595278525,-67.66267394470752 -51.557641015146665,-67.88632469105039 -52.551729451545526,-68.07580871096253" /></edges>