<?xml version="1.0" encoding="UTF-8"?>

<!-- generated on 2022-01-17 11:31:35 by Eclipse SUMO netedit Version 1.9.2
<configuration xmlns:xsi="http://www.w3.org/2001/XMLSchema-instance" xsi:noNamespaceSchemaLocation="http://sumo.dlr.de/xsd/netconvertConfiguration.xsd">

    <input>
        <sumo-net-file value="/Users/rith/Git/sumo-gym/maps/Highway/four_lane_german.net.xml"/>
    </input>

    <output>
        <output-file value="/Users/rith/Git/sumo-gym/maps/Highway/four_lane_german.net.xml"/>
    </output>

    <processing>
        <geometry.min-radius.fix.railways value="false"/>
        <geometry.max-grade.fix value="false"/>
        <offset.disable-normalization value="true"/>
        <lefthand value="false"/>
    </processing>

    <junctions>
        <no-turnarounds value="true"/>
        <junctions.corner-detail value="5"/>
        <junctions.limit-turn-speed value="5.5"/>
        <rectangular-lane-cut value="false"/>
    </junctions>

    <pedestrian>
        <walkingareas value="false"/>
    </pedestrian>

    <netedit>
        <route-files value="/Users/rith/Git/sumo-gym/maps/Highway/merge.rou.xml"/>
    </netedit>

    <report>
        <aggregate-warnings value="5"/>
    </report>

</configuration>
-->

<net version="1.9" junctionCornerDetail="5" limitTurnSpeed="5.50" xmlns:xsi="http://www.w3.org/2001/XMLSchema-instance" xsi:noNamespaceSchemaLocation="http://sumo.dlr.de/xsd/net_file.xsd">

    <location netOffset="0.00,0.00" convBoundary="-0.26,60.83,1000.00,100.00" origBoundary="-10000000000.00,-10000000000.00,10000000000.00,10000000000.00" projParameter="!"/>

    <edge id=":gneJ10_0" function="internal">
        <lane id=":gneJ10_0_0" index="0" speed="30.00" length="0.10" shape="400.00,88.80 400.00,88.80"/>
        <lane id=":gneJ10_0_1" index="1" speed="30.00" length="0.10" shape="400.00,92.00 400.00,92.00"/>
        <lane id=":gneJ10_0_2" index="2" speed="30.00" length="0.10" shape="400.00,95.20 400.00,95.20"/>
        <lane id=":gneJ10_0_3" index="3" speed="30.00" length="0.10" shape="400.00,98.40 400.00,98.40"/>
    </edge>
    <edge id=":gneJ11_0" function="internal">
        <lane id=":gneJ11_0_0" index="0" speed="30.00" length="0.10" shape="500.00,88.80 500.00,88.80"/>
        <lane id=":gneJ11_0_1" index="1" speed="30.00" length="0.10" shape="500.00,92.00 500.00,92.00"/>
        <lane id=":gneJ11_0_2" index="2" speed="30.00" length="0.10" shape="500.00,95.20 500.00,95.20"/>
        <lane id=":gneJ11_0_3" index="3" speed="30.00" length="0.10" shape="500.00,98.40 500.00,98.40"/>
    </edge>
    <edge id=":gneJ19_0" function="internal">
        <lane id=":gneJ19_0_0" index="0" speed="30.00" length="0.10" shape="600.00,88.80 600.00,88.80"/>
        <lane id=":gneJ19_0_1" index="1" speed="30.00" length="0.10" shape="600.00,92.00 600.00,92.00"/>
        <lane id=":gneJ19_0_2" index="2" speed="30.00" length="0.10" shape="600.00,95.20 600.00,95.20"/>
        <lane id=":gneJ19_0_3" index="3" speed="30.00" length="0.10" shape="600.00,98.40 600.00,98.40"/>
    </edge>
    <edge id=":gneJ20_0" function="internal">
        <lane id=":gneJ20_0_0" index="0" speed="30.00" length="0.10" shape="700.00,88.80 700.00,88.80"/>
        <lane id=":gneJ20_0_1" index="1" speed="30.00" length="0.10" shape="700.00,92.00 700.00,92.00"/>
        <lane id=":gneJ20_0_2" index="2" speed="30.00" length="0.10" shape="700.00,95.20 700.00,95.20"/>
        <lane id=":gneJ20_0_3" index="3" speed="30.00" length="0.10" shape="700.00,98.40 700.00,98.40"/>
    </edge>
    <edge id=":gneJ22_0" function="internal">
        <lane id=":gneJ22_0_0" index="0" speed="13.97" length="3.57" shape="931.45,85.60 932.50,85.59 933.23,85.52 933.93,85.33 934.92,84.96"/>
    </edge>
    <edge id=":gneJ22_1" function="internal">
        <lane id=":gneJ22_1_0" index="0" speed="30.00" length="3.59" shape="931.45,88.80 935.04,88.80"/>
        <lane id=":gneJ22_1_1" index="1" speed="30.00" length="3.59" shape="931.45,92.00 935.04,92.00"/>
        <lane id=":gneJ22_1_2" index="2" speed="30.00" length="3.59" shape="931.45,95.20 935.04,95.20"/>
        <lane id=":gneJ22_1_3" index="3" speed="30.00" length="3.59" shape="931.45,98.40 935.04,98.40"/>
    </edge>
    <edge id=":gneJ29_0" function="internal">
        <lane id=":gneJ29_0_0" index="0" speed="13.50" length="3.58" shape="65.86,84.94 66.85,85.32 67.55,85.51 68.28,85.59 69.34,85.60"/>
    </edge>
    <edge id=":gneJ29_1" function="internal">
        <lane id=":gneJ29_1_0" index="0" speed="30.00" length="3.60" shape="65.74,88.80 69.34,88.80"/>
        <lane id=":gneJ29_1_1" index="1" speed="30.00" length="3.60" shape="65.74,92.00 69.34,92.00"/>
        <lane id=":gneJ29_1_2" index="2" speed="30.00" length="3.60" shape="65.74,95.20 69.34,95.20"/>
        <lane id=":gneJ29_1_3" index="3" speed="30.00" length="3.60" shape="65.74,98.40 69.34,98.40"/>
    </edge>
    <edge id=":gneJ33_0" function="internal">
        <lane id=":gneJ33_0_0" index="0" speed="30.00" length="8.16" shape="196.00,85.60 198.46,86.10 200.00,87.20 201.54,88.30 204.00,88.80"/>
        <lane id=":gneJ33_0_1" index="1" speed="30.00" length="8.16" shape="196.00,88.80 204.00,88.80"/>
        <lane id=":gneJ33_0_2" index="2" speed="30.00" length="8.16" shape="196.00,92.00 204.00,92.00"/>
        <lane id=":gneJ33_0_3" index="3" speed="30.00" length="8.16" shape="196.00,95.20 204.00,95.20"/>
        <lane id=":gneJ33_0_4" index="4" speed="30.00" length="8.16" shape="196.00,98.40 204.00,98.40"/>
    </edge>
    <edge id=":gneJ35_0" function="internal">
        <lane id=":gneJ35_0_0" index="0" speed="30.00" length="8.16" shape="796.00,88.80 798.46,88.30 800.00,87.20 801.54,86.10 804.00,85.60"/>
        <lane id=":gneJ35_0_1" index="1" speed="30.00" length="8.16" shape="796.00,88.80 804.00,88.80"/>
        <lane id=":gneJ35_0_2" index="2" speed="30.00" length="8.16" shape="796.00,92.00 804.00,92.00"/>
        <lane id=":gneJ35_0_3" index="3" speed="30.00" length="8.16" shape="796.00,95.20 804.00,95.20"/>
        <lane id=":gneJ35_0_4" index="4" speed="30.00" length="8.16" shape="796.00,98.40 804.00,98.40"/>
    </edge>
    <edge id=":gneJ9_0" function="internal">
        <lane id=":gneJ9_0_0" index="0" speed="30.00" length="0.10" shape="300.00,88.80 300.00,88.80"/>
        <lane id=":gneJ9_0_1" index="1" speed="30.00" length="0.10" shape="300.00,92.00 300.00,92.00"/>
        <lane id=":gneJ9_0_2" index="2" speed="30.00" length="0.10" shape="300.00,95.20 300.00,95.20"/>
        <lane id=":gneJ9_0_3" index="3" speed="30.00" length="0.10" shape="300.00,98.40 300.00,98.40"/>
    </edge>

    <edge id="gneE13" from="gneJ11" to="gneJ19" priority="-1">
        <lane id="gneE13_0" index="0" speed="30.00" length="100.00" shape="500.00,88.80 600.00,88.80"/>
        <lane id="gneE13_1" index="1" speed="30.00" length="100.00" shape="500.00,92.00 600.00,92.00"/>
        <lane id="gneE13_2" index="2" speed="30.00" length="100.00" shape="500.00,95.20 600.00,95.20"/>
        <lane id="gneE13_3" index="3" speed="30.00" length="100.00" shape="500.00,98.40 600.00,98.40"/>
    </edge>
    <edge id="gneE14" from="gneJ19" to="gneJ20" priority="-1">
        <lane id="gneE14_0" index="0" speed="30.00" length="100.00" shape="600.00,88.80 700.00,88.80"/>
        <lane id="gneE14_1" index="1" speed="30.00" length="100.00" shape="600.00,92.00 700.00,92.00"/>
        <lane id="gneE14_2" index="2" speed="30.00" length="100.00" shape="600.00,95.20 700.00,95.20"/>
        <lane id="gneE14_3" index="3" speed="30.00" length="100.00" shape="600.00,98.40 700.00,98.40"/>
    </edge>
    <edge id="gneE17" from="gneJ22" to="gneJ23" priority="-1">
        <lane id="gneE17_0" index="0" speed="30.00" length="64.96" shape="935.04,88.80 1000.00,88.80"/>
        <lane id="gneE17_1" index="1" speed="30.00" length="64.96" shape="935.04,92.00 1000.00,92.00"/>
        <lane id="gneE17_2" index="2" speed="30.00" length="64.96" shape="935.04,95.20 1000.00,95.20"/>
        <lane id="gneE17_3" index="3" speed="30.00" length="64.96" shape="935.04,98.40 1000.00,98.40"/>
    </edge>
    <edge id="gneE23" from="gneJ17" to="gneJ29" priority="-1">
        <lane id="gneE23_0" index="0" speed="30.00" length="65.74" shape="0.00,88.80 65.74,88.80"/>
        <lane id="gneE23_1" index="1" speed="30.00" length="65.74" shape="0.00,92.00 65.74,92.00"/>
        <lane id="gneE23_2" index="2" speed="30.00" length="65.74" shape="0.00,95.20 65.74,95.20"/>
        <lane id="gneE23_3" index="3" speed="30.00" length="65.74" shape="0.00,98.40 65.74,98.40"/>
    </edge>
    <edge id="gneE25" from="gneJ31" to="gneJ29" priority="-1">
        <lane id="gneE25_0" index="0" speed="30.00" length="70.36" shape="0.32,59.34 65.86,84.94"/>
    </edge>
    <edge id="gneE27" from="gneJ22" to="gneJ32" priority="-1">
        <lane id="gneE27_0" index="0" speed="30.00" length="68.81" shape="934.92,84.96 999.21,60.43"/>
    </edge>
    <edge id="gneE28" from="gneJ29" to="gneJ33" priority="-1" spreadType="roadCenter">
        <lane id="gneE28_0" index="0" speed="30.00" length="126.66" acceleration="1" shape="69.34,85.60 196.00,85.60"/>
        <lane id="gneE28_1" index="1" speed="30.00" length="126.66" shape="69.34,88.80 196.00,88.80"/>
        <lane id="gneE28_2" index="2" speed="30.00" length="126.66" shape="69.34,92.00 196.00,92.00"/>
        <lane id="gneE28_3" index="3" speed="30.00" length="126.66" shape="69.34,95.20 196.00,95.20"/>
        <lane id="gneE28_4" index="4" speed="30.00" length="126.66" shape="69.34,98.40 196.00,98.40"/>
    </edge>
    <edge id="gneE29" from="gneJ33" to="gneJ9" priority="-1">
        <lane id="gneE29_0" index="0" speed="30.00" length="96.00" shape="204.00,88.80 300.00,88.80"/>
        <lane id="gneE29_1" index="1" speed="30.00" length="96.00" shape="204.00,92.00 300.00,92.00"/>
        <lane id="gneE29_2" index="2" speed="30.00" length="96.00" shape="204.00,95.20 300.00,95.20"/>
        <lane id="gneE29_3" index="3" speed="30.00" length="96.00" shape="204.00,98.40 300.00,98.40"/>
    </edge>
    <edge id="gneE30" from="gneJ20" to="gneJ35" priority="-1">
        <lane id="gneE30_0" index="0" speed="30.00" length="96.00" shape="700.00,88.80 796.00,88.80"/>
        <lane id="gneE30_1" index="1" speed="30.00" length="96.00" shape="700.00,92.00 796.00,92.00"/>
        <lane id="gneE30_2" index="2" speed="30.00" length="96.00" shape="700.00,95.20 796.00,95.20"/>
        <lane id="gneE30_3" index="3" speed="30.00" length="96.00" shape="700.00,98.40 796.00,98.40"/>
    </edge>
    <edge id="gneE31" from="gneJ35" to="gneJ22" priority="-1">
        <lane id="gneE31_0" index="0" speed="30.00" length="127.45" shape="804.00,85.60 931.45,85.60"/>
        <lane id="gneE31_1" index="1" speed="30.00" length="127.45" shape="804.00,88.80 931.45,88.80"/>
        <lane id="gneE31_2" index="2" speed="30.00" length="127.45" shape="804.00,92.00 931.45,92.00"/>
        <lane id="gneE31_3" index="3" speed="30.00" length="127.45" shape="804.00,95.20 931.45,95.20"/>
        <lane id="gneE31_4" index="4" speed="30.00" length="127.45" shape="804.00,98.40 931.45,98.40"/>
    </edge>
    <edge id="gneE6" from="gneJ9" to="gneJ10" priority="-1">
        <lane id="gneE6_0" index="0" speed="30.00" length="100.00" shape="300.00,88.80 400.00,88.80"/>
        <lane id="gneE6_1" index="1" speed="30.00" length="100.00" shape="300.00,92.00 400.00,92.00"/>
        <lane id="gneE6_2" index="2" speed="30.00" length="100.00" shape="300.00,95.20 400.00,95.20"/>
        <lane id="gneE6_3" index="3" speed="30.00" length="100.00" shape="300.00,98.40 400.00,98.40"/>
    </edge>
    <edge id="gneE7" from="gneJ10" to="gneJ11" priority="-1">
        <lane id="gneE7_0" index="0" speed="30.00" length="100.00" shape="400.00,88.80 500.00,88.80"/>
        <lane id="gneE7_1" index="1" speed="30.00" length="100.00" shape="400.00,92.00 500.00,92.00"/>
        <lane id="gneE7_2" index="2" speed="30.00" length="100.00" shape="400.00,95.20 500.00,95.20"/>
        <lane id="gneE7_3" index="3" speed="30.00" length="100.00" shape="400.00,98.40 500.00,98.40"/>
    </edge>

    <junction id="gneJ10" type="priority" x="400.00" y="100.00" incLanes="gneE6_0 gneE6_1 gneE6_2 gneE6_3" intLanes=":gneJ10_0_0 :gneJ10_0_1 :gneJ10_0_2 :gneJ10_0_3" shape="400.00,100.00 400.00,87.20 400.00,100.00">
        <request index="0" response="0000" foes="0000" cont="0"/>
        <request index="1" response="0000" foes="0000" cont="0"/>
        <request index="2" response="0000" foes="0000" cont="0"/>
        <request index="3" response="0000" foes="0000" cont="0"/>
    </junction>
    <junction id="gneJ11" type="priority" x="500.00" y="100.00" incLanes="gneE7_0 gneE7_1 gneE7_2 gneE7_3" intLanes=":gneJ11_0_0 :gneJ11_0_1 :gneJ11_0_2 :gneJ11_0_3" shape="500.00,100.00 500.00,87.20 500.00,100.00">
        <request index="0" response="0000" foes="0000" cont="0"/>
        <request index="1" response="0000" foes="0000" cont="0"/>
        <request index="2" response="0000" foes="0000" cont="0"/>
        <request index="3" response="0000" foes="0000" cont="0"/>
    </junction>
    <junction id="gneJ17" type="dead_end" x="0.00" y="100.00" incLanes="" intLanes="" shape="0.00,100.00 0.00,87.20"/>
    <junction id="gneJ19" type="priority" x="600.00" y="100.00" incLanes="gneE13_0 gneE13_1 gneE13_2 gneE13_3" intLanes=":gneJ19_0_0 :gneJ19_0_1 :gneJ19_0_2 :gneJ19_0_3" shape="600.00,100.00 600.00,87.20 600.00,100.00">
        <request index="0" response="0000" foes="0000" cont="0"/>
        <request index="1" response="0000" foes="0000" cont="0"/>
        <request index="2" response="0000" foes="0000" cont="0"/>
        <request index="3" response="0000" foes="0000" cont="0"/>
    </junction>
    <junction id="gneJ20" type="priority" x="700.00" y="100.00" incLanes="gneE14_0 gneE14_1 gneE14_2 gneE14_3" intLanes=":gneJ20_0_0 :gneJ20_0_1 :gneJ20_0_2 :gneJ20_0_3" shape="700.00,100.00 700.00,87.20 700.00,100.00">
        <request index="0" response="0000" foes="0000" cont="0"/>
        <request index="1" response="0000" foes="0000" cont="0"/>
        <request index="2" response="0000" foes="0000" cont="0"/>
        <request index="3" response="0000" foes="0000" cont="0"/>
    </junction>
    <junction id="gneJ22" type="priority" x="900.00" y="100.00" incLanes="gneE31_0 gneE31_1 gneE31_2 gneE31_3 gneE31_4" intLanes=":gneJ22_0_0 :gneJ22_1_0 :gneJ22_1_1 :gneJ22_1_2 :gneJ22_1_3" shape="935.04,100.00 935.04,87.20 935.49,86.45 934.35,83.47 933.31,83.84 932.94,83.93 932.55,83.98 932.08,84.00 931.45,84.00 931.45,100.00">
        <request index="0" response="00000" foes="00000" cont="0"/>
        <request index="1" response="00000" foes="00000" cont="0"/>
        <request index="2" response="00000" foes="00000" cont="0"/>
        <request index="3" response="00000" foes="00000" cont="0"/>
        <request index="4" response="00000" foes="00000" cont="0"/>
    </junction>
    <junction id="gneJ23" type="dead_end" x="1000.00" y="100.00" incLanes="gneE17_0 gneE17_1 gneE17_2 gneE17_3" intLanes="" shape="1000.00,87.20 1000.00,100.00"/>
    <junction id="gneJ29" type="priority" x="100.00" y="100.00" incLanes="gneE25_0 gneE23_0 gneE23_1 gneE23_2 gneE23_3" intLanes=":gneJ29_0_0 :gneJ29_1_0 :gneJ29_1_1 :gneJ29_1_2 :gneJ29_1_3" shape="69.34,100.00 69.34,84.00 68.24,83.98 67.85,83.93 67.48,83.83 67.03,83.68 66.44,83.45 65.28,86.43 65.74,87.20 65.74,100.00">
        <request index="0" response="00000" foes="00000" cont="0"/>
        <request index="1" response="00000" foes="00000" cont="0"/>
        <request index="2" response="00000" foes="00000" cont="0"/>
        <request index="3" response="00000" foes="00000" cont="0"/>
        <request index="4" response="00000" foes="00000" cont="0"/>
    </junction>
    <junction id="gneJ31" type="dead_end" x="-0.26" y="60.83" incLanes="" intLanes="" shape="-0.26,60.83 0.90,57.85"/>
    <junction id="gneJ32" type="dead_end" x="999.78" y="61.92" incLanes="gneE27_0" intLanes="" shape="998.64,58.93 999.78,61.92"/>
    <junction id="gneJ33" type="unregulated" x="200.00" y="100.00" incLanes="gneE28_0 gneE28_1 gneE28_2 gneE28_3 gneE28_4" intLanes=":gneJ33_0_0 :gneJ33_0_1 :gneJ33_0_2 :gneJ33_0_3 :gneJ33_0_4" shape="204.00,100.00 204.00,87.20 200.97,86.37 199.03,84.83 197.79,84.24 196.00,84.00 196.00,100.00"/>
    <junction id="gneJ35" type="priority" x="800.00" y="100.00" incLanes="gneE30_0 gneE30_1 gneE30_2 gneE30_3" intLanes=":gneJ35_0_0 :gneJ35_0_1 :gneJ35_0_2 :gneJ35_0_3 :gneJ35_0_4" shape="804.00,100.00 804.00,84.00 800.97,84.83 799.03,86.37 797.79,86.96 796.00,87.20 796.00,100.00">
        <request index="0" response="00000" foes="00000" cont="0"/>
        <request index="1" response="00000" foes="00000" cont="0"/>
        <request index="2" response="00000" foes="00000" cont="0"/>
        <request index="3" response="00000" foes="00000" cont="0"/>
        <request index="4" response="00000" foes="00000" cont="0"/>
    </junction>
    <junction id="gneJ9" type="priority" x="300.00" y="100.00" incLanes="gneE29_0 gneE29_1 gneE29_2 gneE29_3" intLanes=":gneJ9_0_0 :gneJ9_0_1 :gneJ9_0_2 :gneJ9_0_3" shape="300.00,100.00 300.00,87.20 300.00,100.00">
        <request index="0" response="0000" foes="0000" cont="0"/>
        <request index="1" response="0000" foes="0000" cont="0"/>
        <request index="2" response="0000" foes="0000" cont="0"/>
        <request index="3" response="0000" foes="0000" cont="0"/>
    </junction>

    <connection from="gneE13" to="gneE14" fromLane="0" toLane="0" via=":gneJ19_0_0" dir="s" state="M"/>
    <connection from="gneE13" to="gneE14" fromLane="1" toLane="1" via=":gneJ19_0_1" dir="s" state="M"/>
    <connection from="gneE13" to="gneE14" fromLane="2" toLane="2" via=":gneJ19_0_2" dir="s" state="M"/>
    <connection from="gneE13" to="gneE14" fromLane="3" toLane="3" via=":gneJ19_0_3" dir="s" state="M"/>
    <connection from="gneE14" to="gneE30" fromLane="0" toLane="0" via=":gneJ20_0_0" dir="s" state="M"/>
    <connection from="gneE14" to="gneE30" fromLane="1" toLane="1" via=":gneJ20_0_1" dir="s" state="M"/>
    <connection from="gneE14" to="gneE30" fromLane="2" toLane="2" via=":gneJ20_0_2" dir="s" state="M"/>
    <connection from="gneE14" to="gneE30" fromLane="3" toLane="3" via=":gneJ20_0_3" dir="s" state="M"/>
    <connection from="gneE23" to="gneE28" fromLane="0" toLane="1" via=":gneJ29_1_0" dir="s" state="M"/>
    <connection from="gneE23" to="gneE28" fromLane="1" toLane="2" via=":gneJ29_1_1" dir="s" state="M"/>
    <connection from="gneE23" to="gneE28" fromLane="2" toLane="3" via=":gneJ29_1_2" dir="s" state="M"/>
    <connection from="gneE23" to="gneE28" fromLane="3" toLane="4" via=":gneJ29_1_3" dir="s" state="M"/>
    <connection from="gneE25" to="gneE28" fromLane="0" toLane="0" via=":gneJ29_0_0" dir="s" state="M"/>
    <connection from="gneE28" to="gneE29" fromLane="0" toLane="0" via=":gneJ33_0_0" dir="s" state="M"/>
    <connection from="gneE28" to="gneE29" fromLane="1" toLane="0" pass="1" keepClear="0" via=":gneJ33_0_1" dir="s" state="M"/>
    <connection from="gneE28" to="gneE29" fromLane="2" toLane="1" via=":gneJ33_0_2" dir="s" state="M"/>
    <connection from="gneE28" to="gneE29" fromLane="3" toLane="2" via=":gneJ33_0_3" dir="s" state="M"/>
    <connection from="gneE28" to="gneE29" fromLane="4" toLane="3" via=":gneJ33_0_4" dir="s" state="M"/>
    <connection from="gneE29" to="gneE6" fromLane="0" toLane="0" via=":gneJ9_0_0" dir="s" state="M"/>
    <connection from="gneE29" to="gneE6" fromLane="1" toLane="1" via=":gneJ9_0_1" dir="s" state="M"/>
    <connection from="gneE29" to="gneE6" fromLane="2" toLane="2" via=":gneJ9_0_2" dir="s" state="M"/>
    <connection from="gneE29" to="gneE6" fromLane="3" toLane="3" via=":gneJ9_0_3" dir="s" state="M"/>
    <connection from="gneE30" to="gneE31" fromLane="0" toLane="0" via=":gneJ35_0_0" dir="s" state="M"/>
    <connection from="gneE30" to="gneE31" fromLane="0" toLane="1" via=":gneJ35_0_1" dir="s" state="M"/>
    <connection from="gneE30" to="gneE31" fromLane="1" toLane="2" via=":gneJ35_0_2" dir="s" state="M"/>
    <connection from="gneE30" to="gneE31" fromLane="2" toLane="3" via=":gneJ35_0_3" dir="s" state="M"/>
    <connection from="gneE30" to="gneE31" fromLane="3" toLane="4" via=":gneJ35_0_4" dir="s" state="M"/>
    <connection from="gneE31" to="gneE27" fromLane="0" toLane="0" via=":gneJ22_0_0" dir="R" state="M"/>
    <connection from="gneE31" to="gneE17" fromLane="1" toLane="0" via=":gneJ22_1_0" dir="s" state="M"/>
    <connection from="gneE31" to="gneE17" fromLane="2" toLane="1" via=":gneJ22_1_1" dir="s" state="M"/>
    <connection from="gneE31" to="gneE17" fromLane="3" toLane="2" via=":gneJ22_1_2" dir="s" state="M"/>
    <connection from="gneE31" to="gneE17" fromLane="4" toLane="3" via=":gneJ22_1_3" dir="s" state="M"/>
    <connection from="gneE6" to="gneE7" fromLane="0" toLane="0" via=":gneJ10_0_0" dir="s" state="M"/>
    <connection from="gneE6" to="gneE7" fromLane="1" toLane="1" via=":gneJ10_0_1" dir="s" state="M"/>
    <connection from="gneE6" to="gneE7" fromLane="2" toLane="2" via=":gneJ10_0_2" dir="s" state="M"/>
    <connection from="gneE6" to="gneE7" fromLane="3" toLane="3" via=":gneJ10_0_3" dir="s" state="M"/>
    <connection from="gneE7" to="gneE13" fromLane="0" toLane="0" via=":gneJ11_0_0" dir="s" state="M"/>
    <connection from="gneE7" to="gneE13" fromLane="1" toLane="1" via=":gneJ11_0_1" dir="s" state="M"/>
    <connection from="gneE7" to="gneE13" fromLane="2" toLane="2" via=":gneJ11_0_2" dir="s" state="M"/>
    <connection from="gneE7" to="gneE13" fromLane="3" toLane="3" via=":gneJ11_0_3" dir="s" state="M"/>

    <connection from=":gneJ10_0" to="gneE7" fromLane="0" toLane="0" dir="s" state="M"/>
    <connection from=":gneJ10_0" to="gneE7" fromLane="1" toLane="1" dir="s" state="M"/>
    <connection from=":gneJ10_0" to="gneE7" fromLane="2" toLane="2" dir="s" state="M"/>
    <connection from=":gneJ10_0" to="gneE7" fromLane="3" toLane="3" dir="s" state="M"/>
    <connection from=":gneJ11_0" to="gneE13" fromLane="0" toLane="0" dir="s" state="M"/>
    <connection from=":gneJ11_0" to="gneE13" fromLane="1" toLane="1" dir="s" state="M"/>
    <connection from=":gneJ11_0" to="gneE13" fromLane="2" toLane="2" dir="s" state="M"/>
    <connection from=":gneJ11_0" to="gneE13" fromLane="3" toLane="3" dir="s" state="M"/>
    <connection from=":gneJ19_0" to="gneE14" fromLane="0" toLane="0" dir="s" state="M"/>
    <connection from=":gneJ19_0" to="gneE14" fromLane="1" toLane="1" dir="s" state="M"/>
    <connection from=":gneJ19_0" to="gneE14" fromLane="2" toLane="2" dir="s" state="M"/>
    <connection from=":gneJ19_0" to="gneE14" fromLane="3" toLane="3" dir="s" state="M"/>
    <connection from=":gneJ20_0" to="gneE30" fromLane="0" toLane="0" dir="s" state="M"/>
    <connection from=":gneJ20_0" to="gneE30" fromLane="1" toLane="1" dir="s" state="M"/>
    <connection from=":gneJ20_0" to="gneE30" fromLane="2" toLane="2" dir="s" state="M"/>
    <connection from=":gneJ20_0" to="gneE30" fromLane="3" toLane="3" dir="s" state="M"/>
    <connection from=":gneJ22_0" to="gneE27" fromLane="0" toLane="0" dir="R" state="M"/>
    <connection from=":gneJ22_1" to="gneE17" fromLane="0" toLane="0" dir="s" state="M"/>
    <connection from=":gneJ22_1" to="gneE17" fromLane="1" toLane="1" dir="s" state="M"/>
    <connection from=":gneJ22_1" to="gneE17" fromLane="2" toLane="2" dir="s" state="M"/>
    <connection from=":gneJ22_1" to="gneE17" fromLane="3" toLane="3" dir="s" state="M"/>
    <connection from=":gneJ29_0" to="gneE28" fromLane="0" toLane="0" dir="s" state="M"/>
    <connection from=":gneJ29_1" to="gneE28" fromLane="0" toLane="1" dir="s" state="M"/>
    <connection from=":gneJ29_1" to="gneE28" fromLane="1" toLane="2" dir="s" state="M"/>
    <connection from=":gneJ29_1" to="gneE28" fromLane="2" toLane="3" dir="s" state="M"/>
    <connection from=":gneJ29_1" to="gneE28" fromLane="3" toLane="4" dir="s" state="M"/>
    <connection from=":gneJ33_0" to="gneE29" fromLane="0" toLane="0" dir="s" state="M"/>
    <connection from=":gneJ33_0" to="gneE29" fromLane="1" toLane="0" dir="s" state="M"/>
    <connection from=":gneJ33_0" to="gneE29" fromLane="2" toLane="1" dir="s" state="M"/>
    <connection from=":gneJ33_0" to="gneE29" fromLane="3" toLane="2" dir="s" state="M"/>
    <connection from=":gneJ33_0" to="gneE29" fromLane="4" toLane="3" dir="s" state="M"/>
    <connection from=":gneJ35_0" to="gneE31" fromLane="0" toLane="0" dir="s" state="M"/>
    <connection from=":gneJ35_0" to="gneE31" fromLane="1" toLane="1" dir="s" state="M"/>
    <connection from=":gneJ35_0" to="gneE31" fromLane="2" toLane="2" dir="s" state="M"/>
    <connection from=":gneJ35_0" to="gneE31" fromLane="3" toLane="3" dir="s" state="M"/>
    <connection from=":gneJ35_0" to="gneE31" fromLane="4" toLane="4" dir="s" state="M"/>
    <connection from=":gneJ9_0" to="gneE6" fromLane="0" toLane="0" dir="s" state="M"/>
    <connection from=":gneJ9_0" to="gneE6" fromLane="1" toLane="1" dir="s" state="M"/>
    <connection from=":gneJ9_0" to="gneE6" fromLane="2" toLane="2" dir="s" state="M"/>
    <connection from=":gneJ9_0" to="gneE6" fromLane="3" toLane="3" dir="s" state="M"/>

</net>
