<?xml version="1.0" encoding="UTF-8"?>

<!-- generated on 2022-01-17 11:30:24 by Eclipse SUMO netedit Version 1.9.2
<configuration xmlns:xsi="http://www.w3.org/2001/XMLSchema-instance" xsi:noNamespaceSchemaLocation="http://sumo.dlr.de/xsd/netconvertConfiguration.xsd">

    <input>
        <sumo-net-file value="/Users/rith/Git/sumo-gym/scenarios/Highway/map.net.xml"/>
    </input>

    <output>
        <output-file value="/Users/rith/Git/sumo-gym/scenarios/Highway/map.net.xml"/>
    </output>

    <processing>
        <geometry.min-radius.fix.railways value="false"/>
        <geometry.max-grade.fix value="false"/>
        <offset.disable-normalization value="true"/>
        <lefthand value="false"/>
    </processing>

    <junctions>
        <no-turnarounds value="true"/>
        <junctions.corner-detail value="5"/>
        <junctions.limit-turn-speed value="5.5"/>
        <rectangular-lane-cut value="false"/>
    </junctions>

    <pedestrian>
        <walkingareas value="false"/>
    </pedestrian>

    <netedit>
        <route-files value="/Users/rith/Git/sumo-gym/scenarios/Highway/merge.rou.xml"/>
    </netedit>

    <report>
        <aggregate-warnings value="5"/>
    </report>

</configuration>
-->

<routes xmlns:xsi="http://www.w3.org/2001/XMLSchema-instance" xsi:noNamespaceSchemaLocation="http://sumo.dlr.de/xsd/routes_file.xsd">
    <vType id="vType_0" jmIgnoreFoeSpeed="50.0" jmIgnoreFoeProb="1.0"/>
    <route edges="gneE25 gneE28 gneE29" color="yellow" id="route_ego"/>
    <vehicle id="ego" depart="0.00" route="route_ego"/>
    <flow id="flow_0" begin="0.00" departLane="1" departSpeed="20.00" from="gneE23" to="gneE17" end="3600.00" probability="0.50"/>
    <flow id="flow_1" type="vType_0" begin="0.00" departSpeed="20.00" from="gneE23" to="gneE17" end="3600.00" probability="0.50"/>
    <flow id="flow_2" begin="0.00" departLane="2" departSpeed="20.00" from="gneE23" to="gneE17" end="3600.00" probability="0.50"/>
    <flow id="flow_3" begin="0.00" departLane="3" departSpeed="20.00" from="gneE23" to="gneE17" end="3600.00" probability="0.50"/>
</routes>
